<?xml version="1.0" encoding="UTF-8"?>

<!-- generated on 2021-10-23 05:40:53 by Eclipse SUMO netconvert Version 1.10.0
<configuration xmlns:xsi="http://www.w3.org/2001/XMLSchema-instance" xsi:noNamespaceSchemaLocation="http://sumo.dlr.de/xsd/netconvertConfiguration.xsd">

    <input>
        <node-files value="data9/cross.nod.xml"/>
        <edge-files value="data9/cross.edg.xml"/>
        <connection-files value="data9/cross.con.xml"/>
    </input>

    <output>
        <output-file value="data9/cross.net.xml"/>
    </output>

    <junctions>
        <no-turnarounds.except-turnlane value="true"/>
    </junctions>

    <report>
        <aggregate-warnings value="5"/>
    </report>

</configuration>
-->

<net version="1.9" junctionCornerDetail="5" limitTurnSpeed="5.50" xmlns:xsi="http://www.w3.org/2001/XMLSchema-instance" xsi:noNamespaceSchemaLocation="http://sumo.dlr.de/xsd/net_file.xsd">

    <location netOffset="600.00,400.00" convBoundary="0.00,0.00,1100.00,1200.00" origBoundary="-600.00,-400.00,500.00,800.00" projParameter="!"/>

    <edge id=":juncE_0" function="internal">
        <lane id=":juncE_0_0" index="0" disallow="pedestrian" speed="3.65" length="4.67" shape="1100.00,398.40 1101.20,399.20 1101.60,400.00 1101.20,400.80 1100.00,401.60"/>
    </edge>
    <edge id=":juncE_w0" function="walkingarea">
        <lane id=":juncE_w0_0" index="0" allow="pedestrian" speed="1.00" length="22.40" width="3.20" shape="1100.00,409.60 1100.00,412.80 1100.00,387.20 1100.00,390.40"/>
    </edge>
    <edge id=":juncMain_0" function="internal">
        <lane id=":juncMain_0_0" index="0" disallow="pedestrian" speed="6.86" length="5.34" shape="585.60,414.30 585.21,411.54 584.03,409.57 583.80,409.44"/>
    </edge>
    <edge id=":juncMain_1" function="internal">
        <lane id=":juncMain_1_0" index="0" disallow="pedestrian" speed="18.45" length="28.60" shape="588.80,414.30 588.80,385.70"/>
        <lane id=":juncMain_1_1" index="1" disallow="pedestrian" speed="18.45" length="28.60" shape="592.00,414.30 592.00,385.70"/>
        <lane id=":juncMain_1_2" index="2" disallow="pedestrian" speed="18.45" length="28.60" shape="595.20,414.30 595.20,385.70"/>
        <lane id=":juncMain_1_3" index="3" disallow="pedestrian" speed="18.45" length="28.60" shape="598.40,414.30 598.40,385.70"/>
    </edge>
    <edge id=":juncMain_5" function="internal">
        <lane id=":juncMain_5_0" index="0" disallow="pedestrian" speed="12.03" length="8.83" shape="598.40,414.30 599.79,405.94 600.00,405.65"/>
        <lane id=":juncMain_5_1" index="1" disallow="pedestrian" speed="11.60" length="7.41" shape="598.40,414.30 599.79,407.34 600.00,407.10"/>
    </edge>
    <edge id=":juncMain_7" function="internal">
        <lane id=":juncMain_7_0" index="0" disallow="pedestrian" speed="3.65" length="2.34" shape="598.40,414.30 599.20,413.10 600.00,412.70"/>
    </edge>
    <edge id=":juncMain_26" function="internal">
        <lane id=":juncMain_26_0" index="0" disallow="pedestrian" speed="6.86" length="4.82" shape="583.80,409.44 582.06,408.39 579.30,408.00"/>
    </edge>
    <edge id=":juncMain_27" function="internal">
        <lane id=":juncMain_27_0" index="0" disallow="pedestrian" speed="12.03" length="24.59" shape="600.00,405.65 603.97,399.98 610.94,396.39 620.70,395.20"/>
    </edge>
    <edge id=":juncMain_28" function="internal">
        <lane id=":juncMain_28_0" index="0" disallow="pedestrian" speed="11.60" length="23.56" shape="600.00,407.10 603.97,402.38 610.94,399.39 620.70,398.40"/>
    </edge>
    <edge id=":juncMain_29" function="internal">
        <lane id=":juncMain_29_0" index="0" disallow="pedestrian" speed="3.65" length="2.34" shape="600.00,412.70 600.80,413.10 601.60,414.30"/>
    </edge>
    <edge id=":juncMain_8" function="internal">
        <lane id=":juncMain_8_0" index="0" disallow="pedestrian" speed="18.46" length="41.40" shape="620.70,408.00 579.30,408.00"/>
        <lane id=":juncMain_8_1" index="1" disallow="pedestrian" speed="18.46" length="41.40" shape="620.70,404.80 579.30,404.80"/>
    </edge>
    <edge id=":juncMain_10" function="internal">
        <lane id=":juncMain_10_0" index="0" disallow="pedestrian" speed="12.09" length="29.12" shape="620.70,401.60 609.54,400.61 601.58,397.63 596.79,392.66 596.23,390.20"/>
        <lane id=":juncMain_10_1" index="1" disallow="pedestrian" speed="11.60" length="26.39" shape="620.70,401.60 610.94,400.61 603.98,397.63 599.79,392.66 599.30,390.20"/>
    </edge>
    <edge id=":juncMain_12" function="internal">
        <lane id=":juncMain_12_0" index="0" disallow="pedestrian" speed="3.65" length="4.67" shape="620.70,401.60 619.50,400.80 619.10,400.00 619.50,399.20 620.70,398.40"/>
    </edge>
    <edge id=":juncMain_30" function="internal">
        <lane id=":juncMain_30_0" index="0" disallow="pedestrian" speed="12.09" length="4.62" shape="596.23,390.20 595.20,385.70"/>
    </edge>
    <edge id=":juncMain_31" function="internal">
        <lane id=":juncMain_31_0" index="0" disallow="pedestrian" speed="11.60" length="4.59" shape="599.30,390.20 598.40,385.70"/>
    </edge>
    <edge id=":juncMain_13" function="internal">
        <lane id=":juncMain_13_0" index="0" disallow="pedestrian" speed="6.86" length="5.34" shape="614.40,385.70 614.79,388.46 615.97,390.43 616.20,390.56"/>
    </edge>
    <edge id=":juncMain_14" function="internal">
        <lane id=":juncMain_14_0" index="0" disallow="pedestrian" speed="18.45" length="28.60" shape="611.20,385.70 611.20,414.30"/>
        <lane id=":juncMain_14_1" index="1" disallow="pedestrian" speed="18.45" length="28.60" shape="608.00,385.70 608.00,414.30"/>
        <lane id=":juncMain_14_2" index="2" disallow="pedestrian" speed="18.45" length="28.60" shape="604.80,385.70 604.80,414.30"/>
        <lane id=":juncMain_14_3" index="3" disallow="pedestrian" speed="18.45" length="28.60" shape="601.60,385.70 601.60,414.30"/>
    </edge>
    <edge id=":juncMain_18" function="internal">
        <lane id=":juncMain_18_0" index="0" disallow="pedestrian" speed="12.03" length="8.83" shape="601.60,385.70 600.21,394.06 600.00,394.35"/>
        <lane id=":juncMain_18_1" index="1" disallow="pedestrian" speed="11.60" length="7.41" shape="601.60,385.70 600.21,392.66 600.00,392.90"/>
    </edge>
    <edge id=":juncMain_20" function="internal">
        <lane id=":juncMain_20_0" index="0" disallow="pedestrian" speed="3.65" length="2.34" shape="601.60,385.70 600.80,386.90 600.00,387.30"/>
    </edge>
    <edge id=":juncMain_32" function="internal">
        <lane id=":juncMain_32_0" index="0" disallow="pedestrian" speed="6.86" length="4.82" shape="616.20,390.56 617.94,391.61 620.70,392.00"/>
    </edge>
    <edge id=":juncMain_33" function="internal">
        <lane id=":juncMain_33_0" index="0" disallow="pedestrian" speed="12.03" length="24.59" shape="600.00,394.35 596.03,400.02 589.06,403.61 579.30,404.80"/>
    </edge>
    <edge id=":juncMain_34" function="internal">
        <lane id=":juncMain_34_0" index="0" disallow="pedestrian" speed="11.60" length="23.56" shape="600.00,392.90 596.03,397.62 589.06,400.61 579.30,401.60"/>
    </edge>
    <edge id=":juncMain_35" function="internal">
        <lane id=":juncMain_35_0" index="0" disallow="pedestrian" speed="3.65" length="2.34" shape="600.00,387.30 599.20,386.90 598.40,385.70"/>
    </edge>
    <edge id=":juncMain_21" function="internal">
        <lane id=":juncMain_21_0" index="0" disallow="pedestrian" speed="18.46" length="41.40" shape="579.30,392.00 620.70,392.00"/>
        <lane id=":juncMain_21_1" index="1" disallow="pedestrian" speed="18.46" length="41.40" shape="579.30,395.20 620.70,395.20"/>
    </edge>
    <edge id=":juncMain_23" function="internal">
        <lane id=":juncMain_23_0" index="0" disallow="pedestrian" speed="12.09" length="29.12" shape="579.30,398.40 590.46,399.39 598.42,402.37 603.21,407.34 603.77,409.80"/>
        <lane id=":juncMain_23_1" index="1" disallow="pedestrian" speed="11.60" length="26.39" shape="579.30,398.40 589.06,399.39 596.02,402.37 600.21,407.34 600.70,409.80"/>
    </edge>
    <edge id=":juncMain_25" function="internal">
        <lane id=":juncMain_25_0" index="0" disallow="pedestrian" speed="3.65" length="4.67" shape="579.30,398.40 580.50,399.20 580.90,400.00 580.50,400.80 579.30,401.60"/>
    </edge>
    <edge id=":juncMain_36" function="internal">
        <lane id=":juncMain_36_0" index="0" disallow="pedestrian" speed="12.09" length="4.62" shape="603.77,409.80 604.80,414.30"/>
    </edge>
    <edge id=":juncMain_37" function="internal">
        <lane id=":juncMain_37_0" index="0" disallow="pedestrian" speed="11.60" length="4.59" shape="600.70,409.80 601.60,414.30"/>
    </edge>
    <edge id=":juncMain_c0" function="crossing" crossingEdges="edgeN_I edgeN_O">
        <lane id=":juncMain_c0_0" index="0" allow="pedestrian" speed="1.00" length="32.00" width="4.50" shape="616.00,412.05 584.00,412.05"/>
    </edge>
    <edge id=":juncMain_c1" function="crossing" crossingEdges="edgeE_I edgeE_O">
        <lane id=":juncMain_c1_0" index="0" allow="pedestrian" speed="1.00" length="19.20" width="4.50" shape="618.45,390.40 618.45,409.60"/>
    </edge>
    <edge id=":juncMain_c2" function="crossing" crossingEdges="edgeS_I edgeS_O">
        <lane id=":juncMain_c2_0" index="0" allow="pedestrian" speed="1.00" length="32.00" width="4.50" shape="584.00,387.95 616.00,387.95"/>
    </edge>
    <edge id=":juncMain_c3" function="crossing" crossingEdges="edgeW_I edgeW_O">
        <lane id=":juncMain_c3_0" index="0" allow="pedestrian" speed="1.00" length="19.20" width="4.50" shape="581.55,409.60 581.55,390.40"/>
    </edge>
    <edge id=":juncMain_w0" function="walkingarea">
        <lane id=":juncMain_w0_0" index="0" allow="pedestrian" speed="1.00" length="3.82" width="4.50" shape="579.30,409.60 579.30,412.80 580.80,414.30 584.00,414.30 583.87,412.86 583.48,411.69 582.83,410.77 581.91,410.12 580.74,409.73"/>
    </edge>
    <edge id=":juncMain_w1" function="walkingarea">
        <lane id=":juncMain_w1_0" index="0" allow="pedestrian" speed="1.00" length="3.82" width="4.50" shape="616.00,414.30 619.20,414.30 620.70,412.80 620.70,409.60 619.26,409.73 618.09,410.12 617.17,410.78 616.52,411.69 616.13,412.86"/>
    </edge>
    <edge id=":juncMain_w2" function="walkingarea">
        <lane id=":juncMain_w2_0" index="0" allow="pedestrian" speed="1.00" length="3.82" width="4.50" shape="620.70,390.40 620.70,387.20 619.20,385.70 616.00,385.70 616.13,387.14 616.52,388.31 617.17,389.23 618.09,389.88 619.26,390.27"/>
    </edge>
    <edge id=":juncMain_w3" function="walkingarea">
        <lane id=":juncMain_w3_0" index="0" allow="pedestrian" speed="1.00" length="3.82" width="4.50" shape="584.00,385.70 580.80,385.70 579.30,387.20 579.30,390.40 580.74,390.27 581.91,389.88 582.83,389.22 583.48,388.31 583.87,387.14"/>
    </edge>
    <edge id=":juncN_0" function="internal">
        <lane id=":juncN_0_0" index="0" disallow="pedestrian" speed="3.65" length="4.67" shape="601.60,1200.00 600.80,1201.20 600.00,1201.60 599.20,1201.20 598.40,1200.00"/>
    </edge>
    <edge id=":juncN_w0" function="walkingarea">
        <lane id=":juncN_w0_0" index="0" allow="pedestrian" speed="1.00" length="35.20" width="3.20" shape="584.00,1200.00 580.80,1200.00 619.20,1200.00 616.00,1200.00"/>
    </edge>
    <edge id=":juncS_0" function="internal">
        <lane id=":juncS_0_0" index="0" disallow="pedestrian" speed="3.65" length="4.67" shape="598.40,0.00 599.20,-1.20 600.00,-1.60 600.80,-1.20 601.60,0.00"/>
    </edge>
    <edge id=":juncS_w0" function="walkingarea">
        <lane id=":juncS_w0_0" index="0" allow="pedestrian" speed="1.00" length="35.20" width="3.20" shape="616.00,0.00 619.20,0.00 580.80,0.00 584.00,0.00"/>
    </edge>
    <edge id=":juncW_0" function="internal">
        <lane id=":juncW_0_0" index="0" disallow="pedestrian" speed="3.65" length="4.67" shape="0.00,401.60 -1.20,400.80 -1.60,400.00 -1.20,399.20 0.00,398.40"/>
    </edge>
    <edge id=":juncW_w0" function="walkingarea">
        <lane id=":juncW_w0_0" index="0" allow="pedestrian" speed="1.00" length="22.40" width="3.20" shape="0.00,390.40 0.00,387.20 0.00,412.80 0.00,409.60"/>
    </edge>

    <edge id="edgeE_I" from="juncMain" to="juncE" priority="46">
        <lane id="edgeE_I_0" index="0" allow="pedestrian" speed="15.39" length="479.30" shape="620.70,388.80 1100.00,388.80"/>
        <lane id="edgeE_I_1" index="1" disallow="pedestrian" speed="15.39" length="479.30" shape="620.70,392.00 1100.00,392.00"/>
        <lane id="edgeE_I_2" index="2" disallow="pedestrian" speed="15.39" length="479.30" shape="620.70,395.20 1100.00,395.20"/>
        <lane id="edgeE_I_3" index="3" disallow="pedestrian" speed="15.39" length="479.30" shape="620.70,398.40 1100.00,398.40"/>
    </edge>
    <edge id="edgeE_O" from="juncE" to="juncMain" priority="78">
        <lane id="edgeE_O_0" index="0" allow="pedestrian" speed="21.52" length="479.30" shape="1100.00,411.20 620.70,411.20"/>
        <lane id="edgeE_O_1" index="1" disallow="pedestrian" speed="21.52" length="479.30" shape="1100.00,408.00 620.70,408.00"/>
        <lane id="edgeE_O_2" index="2" disallow="pedestrian" speed="21.52" length="479.30" shape="1100.00,404.80 620.70,404.80"/>
        <lane id="edgeE_O_3" index="3" disallow="pedestrian" speed="21.52" length="479.30" shape="1100.00,401.60 620.70,401.60"/>
    </edge>
    <edge id="edgeN_I" from="juncMain" to="juncN" priority="46">
        <lane id="edgeN_I_0" index="0" allow="pedestrian" speed="18.57" length="785.70" shape="617.60,414.30 617.60,1200.00"/>
        <lane id="edgeN_I_1" index="1" disallow="pedestrian" speed="18.57" length="785.70" shape="614.40,414.30 614.40,1200.00"/>
        <lane id="edgeN_I_2" index="2" disallow="pedestrian" speed="18.57" length="785.70" shape="611.20,414.30 611.20,1200.00"/>
        <lane id="edgeN_I_3" index="3" disallow="pedestrian" speed="18.57" length="785.70" shape="608.00,414.30 608.00,1200.00"/>
        <lane id="edgeN_I_4" index="4" disallow="pedestrian" speed="18.57" length="785.70" shape="604.80,414.30 604.80,1200.00"/>
        <lane id="edgeN_I_5" index="5" disallow="pedestrian" speed="18.57" length="785.70" shape="601.60,414.30 601.60,1200.00"/>
    </edge>
    <edge id="edgeN_O" from="juncN" to="juncMain" priority="78">
        <lane id="edgeN_O_0" index="0" allow="pedestrian" speed="18.34" length="785.70" shape="582.40,1200.00 582.40,414.30"/>
        <lane id="edgeN_O_1" index="1" disallow="pedestrian" speed="18.34" length="785.70" shape="585.60,1200.00 585.60,414.30"/>
        <lane id="edgeN_O_2" index="2" disallow="pedestrian" speed="18.34" length="785.70" shape="588.80,1200.00 588.80,414.30"/>
        <lane id="edgeN_O_3" index="3" disallow="pedestrian" speed="18.34" length="785.70" shape="592.00,1200.00 592.00,414.30"/>
        <lane id="edgeN_O_4" index="4" disallow="pedestrian" speed="18.34" length="785.70" shape="595.20,1200.00 595.20,414.30"/>
        <lane id="edgeN_O_5" index="5" disallow="pedestrian" speed="18.34" length="785.70" shape="598.40,1200.00 598.40,414.30"/>
    </edge>
    <edge id="edgeS_I" from="juncMain" to="juncS" priority="46">
        <lane id="edgeS_I_0" index="0" allow="pedestrian" speed="18.57" length="385.70" shape="582.40,385.70 582.40,0.00"/>
        <lane id="edgeS_I_1" index="1" disallow="pedestrian" speed="18.57" length="385.70" shape="585.60,385.70 585.60,0.00"/>
        <lane id="edgeS_I_2" index="2" disallow="pedestrian" speed="18.57" length="385.70" shape="588.80,385.70 588.80,0.00"/>
        <lane id="edgeS_I_3" index="3" disallow="pedestrian" speed="18.57" length="385.70" shape="592.00,385.70 592.00,0.00"/>
        <lane id="edgeS_I_4" index="4" disallow="pedestrian" speed="18.57" length="385.70" shape="595.20,385.70 595.20,0.00"/>
        <lane id="edgeS_I_5" index="5" disallow="pedestrian" speed="18.57" length="385.70" shape="598.40,385.70 598.40,0.00"/>
    </edge>
    <edge id="edgeS_O" from="juncS" to="juncMain" priority="78">
        <lane id="edgeS_O_0" index="0" allow="pedestrian" speed="18.34" length="385.70" shape="617.60,0.00 617.60,385.70"/>
        <lane id="edgeS_O_1" index="1" disallow="pedestrian" speed="18.34" length="385.70" shape="614.40,0.00 614.40,385.70"/>
        <lane id="edgeS_O_2" index="2" disallow="pedestrian" speed="18.34" length="385.70" shape="611.20,0.00 611.20,385.70"/>
        <lane id="edgeS_O_3" index="3" disallow="pedestrian" speed="18.34" length="385.70" shape="608.00,0.00 608.00,385.70"/>
        <lane id="edgeS_O_4" index="4" disallow="pedestrian" speed="18.34" length="385.70" shape="604.80,0.00 604.80,385.70"/>
        <lane id="edgeS_O_5" index="5" disallow="pedestrian" speed="18.34" length="385.70" shape="601.60,0.00 601.60,385.70"/>
    </edge>
    <edge id="edgeW_I" from="juncMain" to="juncW" priority="46">
        <lane id="edgeW_I_0" index="0" allow="pedestrian" speed="15.39" length="579.30" shape="579.30,411.20 0.00,411.20"/>
        <lane id="edgeW_I_1" index="1" disallow="pedestrian" speed="15.39" length="579.30" shape="579.30,408.00 0.00,408.00"/>
        <lane id="edgeW_I_2" index="2" disallow="pedestrian" speed="15.39" length="579.30" shape="579.30,404.80 0.00,404.80"/>
        <lane id="edgeW_I_3" index="3" disallow="pedestrian" speed="15.39" length="579.30" shape="579.30,401.60 0.00,401.60"/>
    </edge>
    <edge id="edgeW_O" from="juncW" to="juncMain" priority="78">
        <lane id="edgeW_O_0" index="0" allow="pedestrian" speed="21.52" length="579.30" shape="0.00,388.80 579.30,388.80"/>
        <lane id="edgeW_O_1" index="1" disallow="pedestrian" speed="21.52" length="579.30" shape="0.00,392.00 579.30,392.00"/>
        <lane id="edgeW_O_2" index="2" disallow="pedestrian" speed="21.52" length="579.30" shape="0.00,395.20 579.30,395.20"/>
        <lane id="edgeW_O_3" index="3" disallow="pedestrian" speed="21.52" length="579.30" shape="0.00,398.40 579.30,398.40"/>
    </edge>

    <tlLogic id="juncMain" type="static" programID="0" offset="0">
        <phase duration="20" state="rrrrrrrrrrrrrrrrrrrrrGGggGGrGr"/>
        <phase duration="5"  state="rrrrrrrrrrrrrrrrrrrrrGGggGrrrr"/>
        <phase duration="5"  state="rrrrrrrrrrrrrrrrrrrrryyyyyrrrr"/>
        <phase duration="20" state="gGGGGgggrrrrrgGGGGgggrrrrrrGrG"/>
        <phase duration="5"  state="gGGGGgggrrrrrgGGGGgggrrrrrrrrr"/>
        <phase duration="5"  state="yyyyyyyyrrrrryyyyyyyyrrrrrrrrr"/>
        <phase duration="20" state="rrrrrrrrGGggGrrrrrrrrrrrrrGrGr"/>
        <phase duration="5"  state="rrrrrrrrGGggGrrrrrrrrrrrrrrrrr"/>
        <phase duration="5"  state="rrrrrrrryyyyyrrrrrrrrrrrrrrrrr"/>
    </tlLogic>

    <junction id="juncE" type="priority" x="1100.00" y="400.00" incLanes="edgeE_I_0 edgeE_I_1 edgeE_I_2 edgeE_I_3" intLanes=":juncE_0_0" shape="1100.00,400.00 1100.00,387.20 1100.00,400.00">
        <request index="0" response="0" foes="0" cont="0"/>
    </junction>
    <junction id="juncMain" type="traffic_light" x="600.00" y="400.00" incLanes="edgeN_O_0 edgeN_O_1 edgeN_O_2 edgeN_O_3 edgeN_O_4 edgeN_O_5 edgeE_O_0 edgeE_O_1 edgeE_O_2 edgeE_O_3 edgeS_O_0 edgeS_O_1 edgeS_O_2 edgeS_O_3 edgeS_O_4 edgeS_O_5 edgeW_O_0 edgeW_O_1 edgeW_O_2 edgeW_O_3 :juncMain_w1_0 :juncMain_w2_0 :juncMain_w3_0 :juncMain_w0_0" intLanes=":juncMain_26_0 :juncMain_1_0 :juncMain_1_1 :juncMain_1_2 :juncMain_1_3 :juncMain_27_0 :juncMain_28_0 :juncMain_29_0 :juncMain_8_0 :juncMain_8_1 :juncMain_30_0 :juncMain_31_0 :juncMain_12_0 :juncMain_32_0 :juncMain_14_0 :juncMain_14_1 :juncMain_14_2 :juncMain_14_3 :juncMain_33_0 :juncMain_34_0 :juncMain_35_0 :juncMain_21_0 :juncMain_21_1 :juncMain_36_0 :juncMain_37_0 :juncMain_25_0 :juncMain_c0_0 :juncMain_c1_0 :juncMain_c2_0 :juncMain_c3_0" shape="580.80,414.30 619.20,414.30 619.37,413.47 619.58,413.18 619.87,412.97 620.24,412.84 620.70,412.80 620.70,387.20 619.87,387.03 619.58,386.82 619.37,386.53 619.24,386.16 619.20,385.70 580.80,385.70 580.63,386.53 580.42,386.82 580.13,387.03 579.76,387.16 579.30,387.20 579.30,412.80 580.13,412.97 580.42,413.18 580.63,413.47 580.76,413.84">
        <request index="0"  response="100100000000000000001100000000" foes="100100000000000000001100000000" cont="1"/>
        <request index="1"  response="010101111000000000111100000000" foes="010101111111000000111100000000" cont="0"/>
        <request index="2"  response="010101111000000000111100000000" foes="010101111111000000111100000000" cont="0"/>
        <request index="3"  response="010101111000000000111100000000" foes="010101111111000000111100000000" cont="0"/>
        <request index="4"  response="010101111000000000111100000000" foes="010101111111000000111100000000" cont="0"/>
        <request index="5"  response="001101111000111100111100000000" foes="001101111000111101111100000000" cont="1"/>
        <request index="6"  response="001101111000111100111100000000" foes="001101111000111101111100000000" cont="1"/>
        <request index="7"  response="000101100000111100000000000000" foes="000101100000111100000000000000" cont="1"/>
        <request index="8"  response="101001100011000000000001100001" foes="101001100011111100000001111111" cont="0"/>
        <request index="9"  response="101001100011000000000001100001" foes="101001100011111100000001111111" cont="0"/>
        <request index="10" response="011000011011000000000001100000" foes="011000011111111100000001111110" cont="1"/>
        <request index="11" response="011000011011000000000001100000" foes="011000011111111100000001111110" cont="1"/>
        <request index="12" response="001000000000000000000001100000" foes="001000000000000000000001100000" cont="0"/>
        <request index="13" response="011000011000000000000000000000" foes="011000011000000000000000000000" cont="1"/>
        <request index="14" response="010101111000000000111100000000" foes="010101111000000000111111100000" cont="0"/>
        <request index="15" response="010101111000000000111100000000" foes="010101111000000000111111100000" cont="0"/>
        <request index="16" response="010101111000000000111100000000" foes="010101111000000000111111100000" cont="0"/>
        <request index="17" response="010101111000000000111100000000" foes="010101111000000000111111100000" cont="0"/>
        <request index="18" response="110001111000000000111100011110" foes="110011111000000000111100011110" cont="1"/>
        <request index="19" response="110001111000000000111100011110" foes="110011111000000000111100011110" cont="1"/>
        <request index="20" response="010000000000000000110000011110" foes="010000000000000000110000011110" cont="1"/>
        <request index="21" response="101000000011000010110001100000" foes="101000000011111110110001111110" cont="0"/>
        <request index="22" response="101000000011000010110001100000" foes="101000000011111110110001111110" cont="0"/>
        <request index="23" response="100100000011000000001101100000" foes="100100000011111100001111111110" cont="1"/>
        <request index="24" response="100100000011000000001101100000" foes="100100000011111100001111111110" cont="1"/>
        <request index="25" response="100000000011000000000000000000" foes="100000000011000000000000000000" cont="0"/>
        <request index="26" response="000000000000000000000000000000" foes="000001100000111100000011111111" cont="0"/>
        <request index="27" response="000000000000000000000000000000" foes="000000011000000011111101100000" cont="0"/>
        <request index="28" response="000000000000000000000000000000" foes="000000000111111110110000011110" cont="0"/>
        <request index="29" response="000000000000000000000000000000" foes="000011111011000000001100000001" cont="0"/>
    </junction>
    <junction id="juncN" type="priority" x="600.00" y="1200.00" incLanes="edgeN_I_0 edgeN_I_1 edgeN_I_2 edgeN_I_3 edgeN_I_4 edgeN_I_5" intLanes=":juncN_0_0" shape="600.00,1200.00 619.20,1200.00 600.00,1200.00">
        <request index="0" response="0" foes="0" cont="0"/>
    </junction>
    <junction id="juncS" type="priority" x="600.00" y="0.00" incLanes="edgeS_I_0 edgeS_I_1 edgeS_I_2 edgeS_I_3 edgeS_I_4 edgeS_I_5" intLanes=":juncS_0_0" shape="600.00,0.00 580.80,0.00 600.00,0.00">
        <request index="0" response="0" foes="0" cont="0"/>
    </junction>
    <junction id="juncW" type="priority" x="0.00" y="400.00" incLanes="edgeW_I_0 edgeW_I_1 edgeW_I_2 edgeW_I_3" intLanes=":juncW_0_0" shape="0.00,400.00 0.00,412.80 0.00,400.00">
        <request index="0" response="0" foes="0" cont="0"/>
    </junction>

    <junction id=":juncMain_26_0" type="internal" x="583.80" y="409.44" incLanes=":juncMain_0_0" intLanes=":juncMain_8_0 :juncMain_8_1 :juncMain_18_0 :juncMain_18_1 :juncMain_25_0 :juncMain_c0_0 :juncMain_c3_0"/>
    <junction id=":juncMain_27_0" type="internal" x="600.00" y="405.65" incLanes=":juncMain_5_0 edgeS_O_1 edgeS_O_2 edgeS_O_3 edgeS_O_4 edgeS_O_5" intLanes=":juncMain_8_0 :juncMain_8_1 :juncMain_10_0 :juncMain_10_1 :juncMain_12_0 :juncMain_13_0 :juncMain_14_0 :juncMain_14_1 :juncMain_14_2 :juncMain_14_3 :juncMain_21_0 :juncMain_21_1 :juncMain_23_0 :juncMain_23_1 :juncMain_c0_0 :juncMain_c1_0"/>
    <junction id=":juncMain_28_0" type="internal" x="600.00" y="407.10" incLanes=":juncMain_5_1 edgeS_O_1 edgeS_O_2 edgeS_O_3 edgeS_O_4 edgeS_O_5" intLanes=":juncMain_8_0 :juncMain_8_1 :juncMain_10_0 :juncMain_10_1 :juncMain_12_0 :juncMain_13_0 :juncMain_14_0 :juncMain_14_1 :juncMain_14_2 :juncMain_14_3 :juncMain_21_0 :juncMain_21_1 :juncMain_23_0 :juncMain_23_1 :juncMain_c0_0 :juncMain_c1_0"/>
    <junction id=":juncMain_29_0" type="internal" x="600.00" y="412.70" incLanes=":juncMain_7_0 edgeS_O_2 edgeS_O_3 edgeS_O_4 edgeS_O_5 edgeW_O_3" intLanes=":juncMain_14_0 :juncMain_14_1 :juncMain_14_2 :juncMain_14_3 :juncMain_23_0 :juncMain_23_1 :juncMain_c0_0 :juncMain_c0_0"/>
    <junction id=":juncMain_30_0" type="internal" x="596.23" y="390.20" incLanes=":juncMain_10_0" intLanes=":juncMain_1_0 :juncMain_1_1 :juncMain_1_2 :juncMain_1_3 :juncMain_5_0 :juncMain_5_1 :juncMain_14_0 :juncMain_14_1 :juncMain_14_2 :juncMain_14_3 :juncMain_18_0 :juncMain_18_1 :juncMain_20_0 :juncMain_21_0 :juncMain_21_1 :juncMain_c1_0 :juncMain_c2_0"/>
    <junction id=":juncMain_31_0" type="internal" x="599.30" y="390.20" incLanes=":juncMain_10_1" intLanes=":juncMain_1_0 :juncMain_1_1 :juncMain_1_2 :juncMain_1_3 :juncMain_5_0 :juncMain_5_1 :juncMain_14_0 :juncMain_14_1 :juncMain_14_2 :juncMain_14_3 :juncMain_18_0 :juncMain_18_1 :juncMain_20_0 :juncMain_21_0 :juncMain_21_1 :juncMain_c1_0 :juncMain_c2_0"/>
    <junction id=":juncMain_32_0" type="internal" x="616.20" y="390.56" incLanes=":juncMain_13_0" intLanes=":juncMain_5_0 :juncMain_5_1 :juncMain_12_0 :juncMain_21_0 :juncMain_21_1 :juncMain_c1_0 :juncMain_c2_0"/>
    <junction id=":juncMain_33_0" type="internal" x="600.00" y="394.35" incLanes=":juncMain_18_0 edgeN_O_1 edgeN_O_2 edgeN_O_3 edgeN_O_4 edgeN_O_5" intLanes=":juncMain_0_0 :juncMain_1_0 :juncMain_1_1 :juncMain_1_2 :juncMain_1_3 :juncMain_8_0 :juncMain_8_1 :juncMain_10_0 :juncMain_10_1 :juncMain_21_0 :juncMain_21_1 :juncMain_23_0 :juncMain_23_1 :juncMain_25_0 :juncMain_c2_0 :juncMain_c3_0"/>
    <junction id=":juncMain_34_0" type="internal" x="600.00" y="392.90" incLanes=":juncMain_18_1 edgeN_O_1 edgeN_O_2 edgeN_O_3 edgeN_O_4 edgeN_O_5" intLanes=":juncMain_0_0 :juncMain_1_0 :juncMain_1_1 :juncMain_1_2 :juncMain_1_3 :juncMain_8_0 :juncMain_8_1 :juncMain_10_0 :juncMain_10_1 :juncMain_21_0 :juncMain_21_1 :juncMain_23_0 :juncMain_23_1 :juncMain_25_0 :juncMain_c2_0 :juncMain_c3_0"/>
    <junction id=":juncMain_35_0" type="internal" x="600.00" y="387.30" incLanes=":juncMain_20_0 edgeE_O_3 edgeN_O_2 edgeN_O_3 edgeN_O_4 edgeN_O_5" intLanes=":juncMain_1_0 :juncMain_1_1 :juncMain_1_2 :juncMain_1_3 :juncMain_10_0 :juncMain_10_1 :juncMain_c2_0 :juncMain_c2_0"/>
    <junction id=":juncMain_36_0" type="internal" x="603.77" y="409.80" incLanes=":juncMain_23_0" intLanes=":juncMain_1_0 :juncMain_1_1 :juncMain_1_2 :juncMain_1_3 :juncMain_5_0 :juncMain_5_1 :juncMain_7_0 :juncMain_8_0 :juncMain_8_1 :juncMain_14_0 :juncMain_14_1 :juncMain_14_2 :juncMain_14_3 :juncMain_18_0 :juncMain_18_1 :juncMain_c0_0 :juncMain_c3_0"/>
    <junction id=":juncMain_37_0" type="internal" x="600.70" y="409.80" incLanes=":juncMain_23_1" intLanes=":juncMain_1_0 :juncMain_1_1 :juncMain_1_2 :juncMain_1_3 :juncMain_5_0 :juncMain_5_1 :juncMain_7_0 :juncMain_8_0 :juncMain_8_1 :juncMain_14_0 :juncMain_14_1 :juncMain_14_2 :juncMain_14_3 :juncMain_18_0 :juncMain_18_1 :juncMain_c0_0 :juncMain_c3_0"/>

    <connection from="edgeE_I" to="edgeE_O" fromLane="3" toLane="3" via=":juncE_0_0" dir="t" state="M"/>
    <connection from="edgeE_O" to="edgeW_I" fromLane="1" toLane="1" via=":juncMain_8_0" tl="juncMain" linkIndex="8" dir="s" state="o"/>
    <connection from="edgeE_O" to="edgeW_I" fromLane="2" toLane="2" via=":juncMain_8_1" tl="juncMain" linkIndex="9" dir="s" state="o"/>
    <connection from="edgeE_O" to="edgeS_I" fromLane="3" toLane="4" via=":juncMain_10_0" tl="juncMain" linkIndex="10" dir="l" state="o"/>
    <connection from="edgeE_O" to="edgeS_I" fromLane="3" toLane="5" via=":juncMain_10_1" tl="juncMain" linkIndex="11" dir="l" state="o"/>
    <connection from="edgeE_O" to="edgeE_I" fromLane="3" toLane="3" via=":juncMain_12_0" tl="juncMain" linkIndex="12" dir="t" state="o"/>
    <connection from="edgeN_I" to="edgeN_O" fromLane="5" toLane="5" via=":juncN_0_0" dir="t" state="M"/>
    <connection from="edgeN_O" to="edgeW_I" fromLane="1" toLane="1" via=":juncMain_0_0" tl="juncMain" linkIndex="0" dir="r" state="o"/>
    <connection from="edgeN_O" to="edgeS_I" fromLane="2" toLane="2" via=":juncMain_1_0" tl="juncMain" linkIndex="1" dir="s" state="o"/>
    <connection from="edgeN_O" to="edgeS_I" fromLane="3" toLane="3" via=":juncMain_1_1" tl="juncMain" linkIndex="2" dir="s" state="o"/>
    <connection from="edgeN_O" to="edgeS_I" fromLane="4" toLane="4" via=":juncMain_1_2" tl="juncMain" linkIndex="3" dir="s" state="o"/>