<routes>
   <personFlow id="pRegN" begin="0" end="3000" personsPerHour="1030.706803">
        <walk edges="edgeN_O edgeS_I" speed="1.118287"/>
    </personFlow>
   <personFlow id="pRegS" begin="0" end="3000" personsPerHour="767.478673">
        <walk edges="edgeS_O edgeN_I" speed="1.108645"/>
    </personFlow>
   <personFlow id="pRegW" begin="0" end="3000" personsPerHour="100.954075">
        <walk edges="edgeW_O edgeE_I" speed="1.599686"/>
    </personFlow>
   <personFlow id="pRegE" begin="0" end="3000" personsPerHour="223.870102">
        <walk edges="edgeE_O edgeW_I" speed="1.470119"/>
    </personFlow>
   <personFlow id="pOppN" begin="0" end="3000" personsPerHour="265.188330" departPos="600.000000">
        <walk edges="edgeN_I edgeS_O" speed="2.001795"/>
    </personFlow>
   <personFlow id="pOppS" begin="0" end="3000" personsPerHour="572.144749" departPos="900.000000">
        <walk edges="edgeS_I edgeN_O" speed="1.620908"/>
    </personFlow>
   <personFlow id="pOppW" begin="0" end="3000" personsPerHour="53.847401" departPos="900.000000">
        <walk edges="edgeW_I edgeE_O" speed="1.235134"/>
    </personFlow>
   <personFlow id="pOppE" begin="0" end="3000" personsPerHour="43.305563" departPos="300.000000">
        <walk edges="edgeE_I edgeW_O" speed="1.792401"/>
    </personFlow>

    <route id="edgeN_edgeN" edges="edgeN_O edgeN_I" />
    <route id="edgeN_edgeS" edges="edgeN_O edgeS_I" />
    <route id="edgeN_edgeW" edges="edgeN_O edgeW_I" />
    <route id="edgeN_edgeE" edges="edgeN_O edgeE_I" />
    <route id="edgeS_edgeN" edges="edgeS_O edgeN_I" />
    <route id="edgeS_edgeS" edges="edgeS_O edgeS_I" />
    <route id="edgeS_edgeW" edges="edgeS_O edgeW_I" />
    <route id="edgeS_edgeE" edges="edgeS_O edgeE_I" />
    <route id="edgeW_edgeN" edges="edgeW_O edgeN_I" />
    <route id="edgeW_edgeS" edges="edgeW_O edgeS_I" />
    <route id="edgeW_edgeW" edges="edgeW_O edgeW_I" />
    <route id="edgeW_edgeE" edges="edgeW_O edgeE_I" />
    <route id="edgeE_edgeN" edges="edgeE_O edgeN_I" />
    <route id="edgeE_edgeS" edges="edgeE_O edgeS_I" />
    <route id="edgeE_edgeW" edges="edgeE_O edgeW_I" />
    <route id="edgeE_edgeE" edges="edgeE_O edgeE_I" />
    
   <vType id="vehicleS_0" length="4.339000" accel="3.355000" decel="4.811000" sigma="0.5" minGap="2.438297" maxSpeed="143.194450" guiShape="passenger" />
   <vehicle id="straightS_0" type="vehicleS_0" route="edgeS_edgeN" depart="0" departLane="3" />

   <vType id="vehicleW_1" length="4.025000" accel="2.482000" decel="4.226000" sigma="0.5" minGap="2.438297" maxSpeed="143.194450" guiShape="passenger" />
   <vehicle id="straightW_1" type="vehicleW_1" route="edgeW_edgeE" depart="0" departLane="2" />

   <vType id="vehicleN_2" length="5.210000" accel="2.382000" decel="3.944000" sigma="0.5" minGap="2.438297" maxSpeed="143.194450" guiShape="passenger" />
   <vehicle id="rightN_2" type="vehicleN_2" route="edgeN_edgeW" depart="2" departLane="1" />

   <vType id="vehicleS_3" length="4.523000" accel="2.270000" decel="2.832000" sigma="0.5" minGap="2.438297" maxSpeed="143.194450" guiShape="passenger" />
   <vehicle id="rightS_3" type="vehicleS_3" route="edgeS_edgeE" depart="2" departLane="1" />

   <vType id="vehicleW_4" length="4.447000" accel="2.248000" decel="3.296000" sigma="0.5" minGap="2.438297" maxSpeed="143.194450" guiShape="passenger" />
   <vehicle id="leftW_4" type="vehicleW_4" route="edgeW_edgeN" depart="5" departLane="5" />

   <vType id="vehicleW_5" length="5.066000" accel="3.297000" decel="4.834000" sigma="0.5" minGap="2.438297" maxSpeed="143.194450" guiShape="passenger" />
   <vehicle id="straightW_5" type="vehicleW_5" route="edgeW_edgeE" depart="6" departLane="2" />

   <vType id="vehicleN_6" length="4.242000" accel="2.753000" decel="5.878000" sigma="0.5" minGap="2.438297" maxSpeed="143.194450" guiShape="passenger" />
   <vehicle id="straightN_6" type="vehicleN_6" route="edgeN_edgeS" depart="7" departLane="3" />

   <vType id="vehicleW_7" length="5.225000" accel="2.208000" decel="5.306000" sigma="0.5" minGap="2.438297" maxSpeed="143.194450" guiShape="passenger" />
   <vehicle id="straightW_7" type="vehicleW_7" route="edgeW_edgeE" depart="7" departLane="4" />

   <vType id="vehicleN_8" length="4.898000" accel="3.324000" decel="3.228000" sigma="0.5" minGap="2.438297" maxSpeed="143.194450" guiShape="passenger" />
   <vehicle id="rightN_8" type="vehicleN_8" route="edgeN_edgeW" depart="8" departLane="1" />

   <vType id="vehicleN_9" length="4.889000" accel="2.556000" decel="4.497000" sigma="0.5" minGap="2.438297" maxSpeed="143.194450" guiShape="passenger" />
   <vehicle id="straightN_9" type="vehicleN_9" route="edgeN_edgeS" depart="9" departLane="3" />

   <vType id="vehicleW_10" length="4.804000" accel="2.267000" decel="2.663000" sigma="0.5" minGap="2.438297" maxSpeed="143.194450" guiShape="passenger" />
   <vehicle id="uturnW_10" type="vehicleW_10" route="edgeW_edgeW" depart="9" departLane="5" />

   <vType id="vehicleE_11" length="5.264000" accel="2.825000" decel="2.719000" sigma="0.5" minGap="2.438297" maxSpeed="143.194450" guiShape="passenger" />
   <vehicle id="straightE_11" type="vehicleE_11" route="edgeE_edgeW" depart="9" departLane="5" />

   <vType id="vehicleW_12" length="5.508000" accel="3.260000" decel="2.893000" sigma="0.5" minGap="2.438297" maxSpeed="143.194450" guiShape="passenger" />
   <vehicle id="straightW_12" type="vehicleW_12" route="edgeW_edgeE" depart="10" departLane="4" />

   <vType id="vehicleN_13" length="4.233000" accel="2.119000" decel="4.966000" sigma="0.5" minGap="2.438297" maxSpeed="143.194450" guiShape="passenger" />
   <vehicle id="straightN_13" type="vehicleN_13" route="edgeN_edgeS" depart="11" departLane="3" />

   <vType id="vehicleE_14" length="5.391000" accel="2.616000" decel="4.682000" sigma="0.5" minGap="2.438297" maxSpeed="143.194450" guiShape="passenger" />
   <vehicle id="rightE_14" type="vehicleE_14" route="edgeE_edgeN" depart="11" departLane="1" />

   <vType id="vehicleN_15" length="4.853000" accel="3.426000" decel="4.312000" sigma="0.5" minGap="2.438297" maxSpeed="143.194450" guiShape="passenger" />
   <vehicle id="straightN_15" type="vehicleN_15" route="edgeN_edgeS" depart="12" departLane="1" />

   <vType id="vehicleE_16" length="5.578000" accel="3.474000" decel="3.319000" sigma="0.5" minGap="2.438297" maxSpeed="143.194450" guiShape="passenger" />
   <vehicle id="straightE_16" type="vehicleE_16" route="edgeE_edgeW" depart="12" departLane="3" />

   <vType id="vehicleW_17" length="4.089000" accel="3.396000" decel="5.115000" sigma="0.5" minGap="2.438297" maxSpeed="143.194450" guiShape="passenger" />
   <vehicle id="straightW_17" type="vehicleW_17" route="edgeW_edgeE" depart="13" departLane="3" />

   <vType id="vehicleS_18" length="4.962000" accel="3.739000" decel="5.671000" sigma="0.5" minGap="2.438297" maxSpeed="143.194450" guiShape="passenger" />
   <vehicle id="straightS_18" type="vehicleS_18" route="edgeS_edgeN" depart="14" departLane="3" />

   <vType id="vehicleN_19" length="4.583000" accel="3.630000" decel="4.042000" sigma="0.5" minGap="2.438297" maxSpeed="143.194450" guiShape="passenger" />
   <vehicle id="straightN_19" type="vehicleN_19" route="edgeN_edgeS" depart="15" departLane="1" />

   <vType id="vehicleS_20" length="4.932000" accel="2.501000" decel="3.253000" sigma="0.5" minGap="2.438297" maxSpeed="143.194450" guiShape="passenger" />
   <vehicle id="straightS_20" type="vehicleS_20" route="edgeS_edgeN" depart="15" departLane="1" />

   <vType id="vehicleE_21" length="4.027000" accel="2.670000" decel="4.256000" sigma="0.5" minGap="2.438297" maxSpeed="143.194450" guiShape="passenger" />
   <vehicle id="leftE_21" type="vehicleE_21" route="edgeE_edgeS" depart="15" departLane="5" />

   <vType id="vehicleS_22" length="5.497000" accel="3.076000" decel="4.115000" sigma="0.5" minGap="2.438297" maxSpeed="143.194450" guiShape="passenger" />
   <vehicle id="straightS_22" type="vehicleS_22" route="edgeS_edgeN" depart="16" departLane="2" />

   <vType id="vehicleE_23" length="4.677000" accel="2.828000" decel="4.095000" sigma="0.5" minGap="2.438297" maxSpeed="143.194450" guiShape="passenger" />
   <vehicle id="leftE_23" type="vehicleE_23" route="edgeE_edgeS" depart="16" departLane="5" />

   <vType id="vehicleW_24" length="4.528000" accel="3.566000" decel="3.350000" sigma="0.5" minGap="2.438297" maxSpeed="143.194450" guiShape="passenger" />
   <vehicle id="straightW_24" type="vehicleW_24" route="edgeW_edgeE" depart="17" departLane="3" />

   <vType id="vehicleN_25" length="4.728000" accel="3.588000" decel="2.759000" sigma="0.5" minGap="2.438297" maxSpeed="143.194450" guiShape="passenger" />
   <vehicle id="straightN_25" type="vehicleN_25" route="edgeN_edgeS" depart="18" departLane="3" />

   <vType id="vehicleS_26" length="4.855000" accel="2.138000" decel="2.820000" sigma="0.5" minGap="2.438297" maxSpeed="143.194450" guiShape="passenger" />
   <vehicle id="straightS_26" type="vehicleS_26" route="edgeS_edgeN" depart="18" departLane="1" />

   <vType id="vehicleW_27" length="4.324000" accel="2.789000" decel="2.702000" sigma="0.5" minGap="2.438297" maxSpeed="143.194450" guiShape="passenger" />
   <vehicle id="straightW_27" type="vehicleW_27" route="edgeW_edgeE" depart="18" departLane="5" />

   <vType id="vehicleE_28" length="5.482000" accel="3.437000" decel="3.475000" sigma="0.5" minGap="2.438297" maxSpeed="143.194450" guiShape="passenger" />
   <vehicle id="straightE_28" type="vehicleE_28" route="edgeE_edgeW" depart="18" departLane="5" />

   <vType id="vehicleN_29" length="5.551000" accel="3.090000" decel="4.352000" sigma="0.5" minGap="2.438297" maxSpeed="143.194450" guiShape="passenger" />
   <vehicle id="straightN_29" type="vehicleN_29" route="edgeN_edgeS" depart="19" departLane="3" />

   <vType id="vehicleW_30" length="5.471000" accel="3.009000" decel="2.696000" sigma="0.5" minGap="2.438297" maxSpeed="143.194450" guiShape="passenger" />
   <vehicle id="straightW_30" type="vehicleW_30" route="edgeW_edgeE" depart="19" departLane="2" />

   <vType id="vehicleN_31" length="5.377000" accel="2.794000" decel="5.715000" sigma="0.5" minGap="2.438297" maxSpeed="143.194450" guiShape="passenger" />
   <vehicle id="straightN_31" type="vehicleN_31" route="edgeN_edgeS" depart="20" departLane="3" />

   <vType id="vehicleS_32" length="4.983000" accel="2.820000" decel="4.493000" sigma="0.5" minGap="2.438297" maxSpeed="143.194450" guiShape="passenger" />
   <vehicle id="straightS_32" type="vehicleS_32" route="edgeS_edgeN" depart="20" departLane="3" />

   <vType id="vehicleW_33" length="5.025000" accel="2.884000" decel="5.672000" sigma="0.5" minGap="2.438297" maxSpeed="143.194450" guiShape="passenger" />
   <vehicle id="leftW_33" type="vehicleW_33" route="edgeW_edgeN" depart="21" departLane="5" />

   <vType id="vehicleE_34" length="4.891000" accel="2.282000" decel="4.336000" sigma="0.5" minGap="2.438297" maxSpeed="143.194450" guiShape="passenger" />
   <vehicle id="straightE_34" type="vehicleE_34" route="edgeE_edgeW" depart="21" departLane="4" />

   <vType id="vehicleN_35" length="4.088000" accel="2.525000" decel="3.474000" sigma="0.5" minGap="2.438297" maxSpeed="143.194450" guiShape="passenger" />
   <vehicle id="straightN_35" type="vehicleN_35" route="edgeN_edgeS" depart="22" departLane="2" />

   <vType id="vehicleW_36" length="4.463000" accel="3.232000" decel="5.705000" sigma="0.5" minGap="2.438297" maxSpeed="143.194450" guiShape="passenger" />
   <vehicle id="rightW_36" type="vehicleW_36" route="edgeW_edgeS" depart="23" departLane="1" />

   <vType id="vehicleW_37" length="4.319000" accel="2.691000" decel="4.848000" sigma="0.5" minGap="2.438297" maxSpeed="143.194450" guiShape="passenger" />
   <vehicle id="straightW_37" type="vehicleW_37" route="edgeW_edgeE" depart="24" departLane="4" />

   <vType id="vehicleN_38" length="4.059000" accel="3.183000" decel="5.332000" sigma="0.5" minGap="2.438297" maxSpeed="143.194450" guiShape="passenger" />
   <vehicle id="rightN_38" type="vehicleN_38" route="edgeN_edgeW" depart="25" departLane="1" />

   <vType id="vehicleS_39" length="5.012000" accel="2.555000" decel="5.031000" sigma="0.5" minGap="2.438297" maxSpeed="143.194450" guiShape="passenger" />
   <vehicle id="straightS_39" type="vehicleS_39" route="edgeS_edgeN" depart="25" departLane="3" />

   <vType id="vehicleN_40" length="5.099000" accel="2.365000" decel="2.625000" sigma="0.5" minGap="2.438297" maxSpeed="143.194450" guiShape="passenger" />
   <vehicle id="rightN_40" type="vehicleN_40" route="edgeN_edgeW" depart="26" departLane="1" />

   <vType id="vehicleW_41" length="4.477000" accel="3.629000" decel="5.218000" sigma="0.5" minGap="2.438297" maxSpeed="143.194450" guiShape="passenger" />
   <vehicle id="leftW_41" type="vehicleW_41" route="edgeW_edgeN" depart="26" departLane="5" />

   <vType id="vehicleN_42" length="4.143000" accel="3.429000" decel="5.519000" sigma="0.5" minGap="2.438297" maxSpeed="143.194450" guiShape="passenger" />
   <vehicle id="straightN_42" type="vehicleN_42" route="edgeN_edgeS" depart="27" departLane="2" />

   <vType id="vehicleN_43" length="5.276000" accel="2.412000" decel="3.909000" sigma="0.5" minGap="2.438297" maxSpeed="143.194450" guiShape="passenger" />
   <vehicle id="straightN_43" type="vehicleN_43" route="edgeN_edgeS" depart="28" departLane="1" />

   <vType id="vehicleS_44" length="5.372000" accel="2.488000" decel="5.288000" sigma="0.5" minGap="2.438297" maxSpeed="143.194450" guiShape="passenger" />
   <vehicle id="rightS_44" type="vehicleS_44" route="edgeS_edgeE" depart="30" departLane="1" />

   <vType id="vehicleS_45" length="4.624000" accel="2.583000" decel="2.739000" sigma="0.5" minGap="2.438297" maxSpeed="143.194450" guiShape="passenger" />
   <vehicle id="straightS_45" type="vehicleS_45" route="edgeS_edgeN" depart="31" departLane="2" />

   <vType id="vehicleE_46" length="4.401000" accel="3.092000" decel="5.858000" sigma="0.5" minGap="2.438297" maxSpeed="143.194450" guiShape="passenger" />
   <vehicle id="rightE_46" type="vehicleE_46" route="edgeE_edgeN" depart="32" departLane="1" />

   <vType id="vehicleN_47" length="5.160000" accel="2.642000" decel="4.570000" sigma="0.5" minGap="2.438297" maxSpeed="143.194450" guiShape="passenger" />
   <vehicle id="straightN_47" type="vehicleN_47" route="edgeN_edgeS" depart="33" departLane="3" />

   <vType id="vehicleS_48" length="4.285000" accel="2.188000" decel="3.990000" sigma="0.5" minGap="2.438297" maxSpeed="143.194450" guiShape="passenger" />
   <vehicle id="rightS_48" type="vehicleS_48" route="edgeS_edgeE" depart="33" departLane="1" />

   <vType id="vehicleE_49" length="4.513000" accel="2.643000" decel="5.395000" sigma="0.5" minGap="2.438297" maxSpeed="143.194450" guiShape="passenger" />
   <vehicle id="straightE_49" type="vehicleE_49" route="edgeE_edgeW" depart="33" departLane="4" />

   <vType id="vehicleS_50" length="4.593000" accel="3.375000" decel="3.096000" sigma="0.5" minGap="2.438297" maxSpeed="143.194450" guiShape="passenger" />
   <vehicle id="straightS_50" type="vehicleS_50" route="edgeS_edgeN" depart="35" departLane="3" />

   <vType id="vehicleW_51" length="3.977000" accel="2.597000" decel="3.969000" sigma="0.5" minGap="2.438297" maxSpeed="143.194450" guiShape="passenger" />
   <vehicle id="straightW_51" type="vehicleW_51" route="edgeW_edgeE" depart="35" departLane="4" />

   <vType id="vehicleN_52" length="4.745000" accel="3.633000" decel="5.218000" sigma="0.5" minGap="2.438297" maxSpeed="143.194450" guiShape="passenger" />
   <vehicle id="straightN_52" type="vehicleN_52" route="edgeN_edgeS" depart="36" departLane="1" />

   <vType id="vehicleW_53" length="4.983000" accel="2.271000" decel="5.750000" sigma="0.5" minGap="2.438297" maxSpeed="143.194450" guiShape="passenger" />
   <vehicle id="straightW_53" type="vehicleW_53" route="edgeW_edgeE" depart="36" departLane="3" />

   <vType id="vehicleN_54" length="4.016000" accel="2.526000" decel="4.123000" sigma="0.5" minGap="2.438297" maxSpeed="143.194450" guiShape="passenger" />
   <vehicle id="straightN_54" type="vehicleN_54" route="edgeN_edgeS" depart="37" departLane="1" />

   <vType id="vehicleE_55" length="5.427000" accel="3.564000" decel="5.523000" sigma="0.5" minGap="2.438297" maxSpeed="143.194450" guiShape="passenger" />
   <vehicle id="straightE_55" type="vehicleE_55" route="edgeE_edgeW" depart="38" departLane="5" />

   <vType id="vehicleN_56" length="5.107000" accel="2.897000" decel="4.404000" sigma="0.5" minGap="2.438297" maxSpeed="143.194450" guiShape="passenger" />
   <vehicle id="straightN_56" type="vehicleN_56" route="edgeN_edgeS" depart="39" departLane="1" />

   <vType id="vehicleN_57" length="5.013000" accel="3.405000" decel="4.281000" sigma="0.5" minGap="2.438297" maxSpeed="143.194450" guiShape="passenger" />
   <vehicle id="straightN_57" type="vehicleN_57" route="edgeN_edgeS" depart="43" departLane="3" />

   <vType id="vehicleS_58" length="5.136000" accel="2.509000" decel="3.648000" sigma="0.5" minGap="2.438297" maxSpeed="143.194450" guiShape="passenger" />
   <vehicle id="straightS_58" type="vehicleS_58" route="edgeS_edgeN" depart="43" departLane="3" />

   <vType id="vehicleW_59" length="4.599000" accel="2.371000" decel="3.232000" sigma="0.5" minGap="2.438297" maxSpeed="143.194450" guiShape="passenger" />
   <vehicle id="leftW_59" type="vehicleW_59" route="edgeW_edgeN" depart="43" departLane="5" />

   <vType id="vehicleW_60" length="5.447000" accel="3.098000" decel="4.875000" sigma="0.5" minGap="2.438297" maxSpeed="143.194450" guiShape="passenger" />
   <vehicle id="straightW_60" type="vehicleW_60" route="edgeW_edgeE" depart="44" departLane="5" />

   <vType id="vehicleW_61" length="4.608000" accel="3.241000" decel="5.225000" sigma="0.5" minGap="2.438297" maxSpeed="143.194450" guiShape="passenger" />
   <vehicle id="straightW_61" type="vehicleW_61" route="edgeW_edgeE" depart="47" departLane="3" />

   <vType id="vehicleW_62" length="5.385000" accel="2.420000" decel="3.390000" sigma="0.5" minGap="2.438297" maxSpeed="143.194450" guiShape="passenger" />
   <vehicle id="straightW_62" type="vehicleW_62" route="edgeW_edgeE" depart="49" departLane="4" />

   <vType id="vehicleE_63" length="5.214000" accel="2.753000" decel="5.068000" sigma="0.5" minGap="2.438297" maxSpeed="143.194450" guiShape="passenger" />
   <vehicle id="straightE_63" type="vehicleE_63" route="edgeE_edgeW" depart="49" departLane="5" />

   <vType id="vehicleN_64" length="4.008000" accel="3.023000" decel="5.914000" sigma="0.5" minGap="2.438297" maxSpeed="143.194450" guiShape="passenger" />
   <vehicle id="straightN_64" type="vehicleN_64" route="edgeN_edgeS" depart="50" departLane="2" />

   <vType id="vehicleS_65" length="5.532000" accel="2.181000" decel="2.608000" sigma="0.5" minGap="2.438297" maxSpeed="143.194450" guiShape="passenger" />
   <vehicle id="straightS_65" type="vehicleS_65" route="edgeS_edgeN" depart="50" departLane="1" />

   <vType id="vehicleW_66" length="4.224000" accel="2.326000" decel="4.786000" sigma="0.5" minGap="2.438297" maxSpeed="143.194450" guiShape="passenger" />
   <vehicle id="leftW_66" type="vehicleW_66" route="edgeW_edgeN" depart="50" departLane="5" />

   <vType id="vehicleN_67" length="4.961000" accel="3.738000" decel="4.953000" sigma="0.5" minGap="2.438297" maxSpeed="143.194450" guiShape="passenger" />
   <vehicle id="straightN_67" type="vehicleN_67" route="edgeN_edgeS" depart="51" departLane="1" />

   <vType id="vehicleW_68" length="4.483000" accel="3.255000" decel="5.771000" sigma="0.5" minGap="2.438297" maxSpeed="143.194450" guiShape="passenger" />
   <vehicle id="leftW_68" type="vehicleW_68" route="edgeW_edgeN" depart="51" departLane="5" />

   <vType id="vehicleN_69" length="5.326000" accel="2.523000" decel="4.881000" sigma="0.5" minGap="2.438297" maxSpeed="143.194450" guiShape="passenger" />
   <vehicle id="straightN_69" type="vehicleN_69" route="edgeN_edgeS" depart="52" departLane="2" />

   <vType id="vehicleE_70" length="5.248000" accel="2.699000" decel="3.964000" sigma="0.5" minGap="2.438297" maxSpeed="143.194450" guiShape="passenger" />
   <vehicle id="uturnE_70" type="vehicleE_70" route="edgeE_edgeE" depart="52" departLane="5" />

   <vType id="vehicleN_71" length="4.531000" accel="3.546000" decel="5.308000" sigma="0.5" minGap="2.438297" maxSpeed="143.194450" guiShape="passenger" />
   <vehicle id="straightN_71" type="vehicleN_71" route="edgeN_edgeS" depart="53" departLane="1" />

   <vType id="vehicleS_72" length="4.824000" accel="3.210000" decel="4.603000" sigma="0.5" minGap="2.438297" maxSpeed="143.194450" guiShape="passenger" />
   <vehicle id="straightS_72" type="vehicleS_72" route="edgeS_edgeN" depart="54" departLane="3" />

   <vType id="vehicleN_73" length="4.553000" accel="2.549000" decel="3.456000" sigma="0.5" minGap="2.438297" maxSpeed="143.194450" guiShape="passenger" />
   <vehicle id="straightN_73" type="vehicleN_73" route="edgeN_edgeS" depart="58" departLane="3" />

   <vType id="vehicleW_74" length="5.517000" accel="2.258000" decel="4.959000" sigma="0.5" minGap="2.438297" maxSpeed="143.194450" guiShape="passenger" />
   <vehicle id="leftW_74" type="vehicleW_74" route="edgeW_edgeN" depart="58" departLane="5" />

   <vType id="vehicleN_75" length="5.133000" accel="2.869000" decel="2.561000" sigma="0.5" minGap="2.438297" maxSpeed="143.194450" guiShape="passenger" />
   <vehicle id="straightN_75" type="vehicleN_75" route="edgeN_edgeS" depart="59" departLane="2" />

   <vType id="vehicleS_76" length="4.474000" accel="3.094000" decel="4.117000" sigma="0.5" minGap="2.438297" maxSpeed="143.194450" guiShape="passenger" />
   <vehicle id="straightS_76" type="vehicleS_76" route="edgeS_edgeN" depart="59" departLane="3" />

   <vType id="vehicleN_77" length="4.489000" accel="3.366000" decel="5.746000" sigma="0.5" minGap="2.438297" maxSpeed="143.194450" guiShape="passenger" />
   <vehicle id="straightN_77" type="vehicleN_77" route="edgeN_edgeS" depart="61" departLane="3" />

   <vType id="vehicleS_78" length="4.763000" accel="3.335000" decel="5.834000" sigma="0.5" minGap="2.438297" maxSpeed="143.194450" guiShape="passenger" />
   <vehicle id="straightS_78" type="vehicleS_78" route="edgeS_edgeN" depart="61" departLane="3" />

   <vType id="vehicleS_79" length="4.065000" accel="2.606000" decel="5.723000" sigma="0.5" minGap="2.438297" maxSpeed="143.194450" guiShape="passenger" />
   <vehicle id="straightS_79" type="vehicleS_79" route="edgeS_edgeN" depart="63" departLane="3" />

   <vType id="vehicleN_80" length="5.506000" accel="2.919000" decel="5.307000" sigma="0.5" minGap="2.438297" maxSpeed="143.194450" guiShape="passenger" />
   <vehicle id="straightN_80" type="vehicleN_80" route="edgeN_edgeS" depart="65" departLane="2" />

   <vType id="vehicleN_81" length="5.519000" accel="2.257000" decel="3.349000" sigma="0.5" minGap="2.438297" maxSpeed="143.194450" guiShape="passenger" />
   <vehicle id="straightN_81" type="vehicleN_81" route="edgeN_edgeS" depart="66" departLane="3" />

   <vType id="vehicleN_82" length="4.709000" accel="2.860000" decel="5.437000" sigma="0.5" minGap="2.438297" maxSpeed="143.194450" guiShape="passenger" />
   <vehicle id="straightN_82" type="vehicleN_82" route="edgeN_edgeS" depart="67" departLane="2" />

   <vType id="vehicleW_83" length="5.050000" accel="2.378000" decel="3.095000" sigma="0.5" minGap="2.438297" maxSpeed="143.194450" guiShape="passenger" />
   <vehicle id="leftW_83" type="vehicleW_83" route="edgeW_edgeN" depart="68" departLane="5" />

   <vType id="vehicleE_84" length="5.097000" accel="2.906000" decel="2.613000" sigma="0.5" minGap="2.438297" maxSpeed="143.194450" guiShape="passenger" />
   <vehicle id="straightE_84" type="vehicleE_84" route="edgeE_edgeW" depart="68" departLane="4" />

   <vType id="vehicleW_85" length="4.476000" accel="3.376000" decel="4.444000" sigma="0.5" minGap="2.438297" maxSpeed="143.194450" guiShape="passenger" />
   <vehicle id="leftW_85" type="vehicleW_85" route="edgeW_edgeN" depart="72" departLane="5" />

   <vType id="vehicleW_86" length="5.072000" accel="3.564000" decel="4.505000" sigma="0.5" minGap="2.438297" maxSpeed="143.194450" guiShape="passenger" />
   <vehicle id="leftW_86" type="vehicleW_86" route="edgeW_edgeN" depart="75" departLane="5" />

   <vType id="vehicleW_87" length="4.741000" accel="3.212000" decel="5.627000" sigma="0.5" minGap="2.438297" maxSpeed="143.194450" guiShape="passenger" />
   <vehicle id="rightW_87" type="vehicleW_87" route="edgeW_edgeS" depart="76" departLane="1" />

   <vType id="vehicleN_88" length="5.551000" accel="2.906000" decel="3.895000" sigma="0.5" minGap="2.438297" maxSpeed="143.194450" guiShape="passenger" />
   <vehicle id="straightN_88" type="vehicleN_88" route="edgeN_edgeS" depart="77" departLane="2" />

   <vType id="vehicleE_89" length="5.206000" accel="3.168000" decel="5.095000" sigma="0.5" minGap="2.438297" maxSpeed="143.194450" guiShape="passenger" />
   <vehicle id="straightE_89" type="vehicleE_89" route="edgeE_edgeW" depart="81" departLane="3" />

   <vType id="vehicleN_90" length="4.444000" accel="3.599000" decel="4.156000" sigma="0.5" minGap="2.438297" maxSpeed="143.194450" guiShape="passenger" />
   <vehicle id="straightN_90" type="vehicleN_90" route="edgeN_edgeS" depart="82" departLane="1" />

   <vType id="vehicleE_91" length="4.872000" accel="3.044000" decel="2.820000" sigma="0.5" minGap="2.438297" maxSpeed="143.194450" guiShape="passenger" />
   <vehicle id="leftE_91" type="vehicleE_91" route="edgeE_edgeS" depart="82" departLane="5" />

   <vType id="vehicleS_92" length="4.786000" accel="3.322000" decel="4.238000" sigma="0.5" minGap="2.438297" maxSpeed="143.194450" guiShape="passenger" />
   <vehicle id="rightS_92" type="vehicleS_92" route="edgeS_edgeE" depart="83" departLane="1" />

   <vType id="vehicleW_93" length="4.950000" accel="3.372000" decel="2.968000" sigma="0.5" minGap="2.438297" maxSpeed="143.194450" guiShape="passenger" />
   <vehicle id="leftW_93" type="vehicleW_93" route="edgeW_edgeN" depart="84" departLane="5" />

   <vType id="vehicleW_94" length="5.600000" accel="2.939000" decel="3.009000" sigma="0.5" minGap="2.438297" maxSpeed="143.194450" guiShape="passenger" />
   <vehicle id="straightW_94" type="vehicleW_94" route="edgeW_edgeE" depart="86" departLane="5" />

   <vType id="vehicleN_95" length="4.906000" accel="2.507000" decel="5.148000" sigma="0.5" minGap="2.438297" maxSpeed="143.194450" guiShape="passenger" />
   <vehicle id="straightN_95" type="vehicleN_95" route="edgeN_edgeS" depart="88" departLane="1" />

   <vType id="vehicleN_96" length="5.264000" accel="3.213000" decel="3.021000" sigma="0.5" minGap="2.438297" maxSpeed="143.194450" guiShape="passenger" />
   <vehicle id="rightN_96" type="vehicleN_96" route="edgeN_edgeW" depart="89" departLane="1" />

   <vType id="vehicleS_97" length="4.516000" accel="2.282000" decel="5.385000" sigma="0.5" minGap="2.438297" maxSpeed="143.194450" guiShape="passenger" />
   <vehicle id="rightS_97" type="vehicleS_97" route="edgeS_edgeE" depart="89" departLane="1" />

   <vType id="vehicleE_98" length="5.552000" accel="2.684000" decel="4.865000" sigma="0.5" minGap="2.438297" maxSpeed="143.194450" guiShape="passenger" />
   <vehicle id="straightE_98" type="vehicleE_98" route="edgeE_edgeW" depart="90" departLane="2" />

   <vType id="vehicleN_99" length="5.211000" accel="3.584000" decel="2.625000" sigma="0.5" minGap="2.438297" maxSpeed="143.194450" guiShape="passenger" />
   <vehicle id="straightN_99" type="vehicleN_99" route="edgeN_edgeS" depart="92" departLane="1" />

   <vType id="vehicleS_100" length="4.443000" accel="2.497000" decel="2.810000" sigma="0.5" minGap="2.438297" maxSpeed="143.194450" guiShape="passenger" />
   <vehicle id="straightS_100" type="vehicleS_100" route="edgeS_edgeN" depart="92" departLane="1" />

   <vType id="vehicleN_101" length="4.463000" accel="2.162000" decel="3.609000" sigma="0.5" minGap="2.438297" maxSpeed="143.194450" guiShape="passenger" />
   <vehicle id="straightN_101" type="vehicleN_101" route="edgeN_edgeS" depart="93" departLane="1" />

   <vType id="vehicleE_102" length="4.896000" accel="3.450000" decel="3.082000" sigma="0.5" minGap="2.438297" maxSpeed="143.194450" guiShape="passenger" />
   <vehicle id="straightE_102" type="vehicleE_102" route="edgeE_edgeW" depart="93" departLane="2" />

   <vType id="vehicleS_103" length="4.723000" accel="3.238000" decel="5.569000" sigma="0.5" minGap="2.438297" maxSpeed="143.194450" guiShape="passenger" />
   <vehicle id="straightS_103" type="vehicleS_103" route="edgeS_edgeN" depart="95" departLane="2" />

   <vType id="vehicleN_104" length="4.538000" accel="3.104000" decel="4.682000" sigma="0.5" minGap="2.438297" maxSpeed="143.194450" guiShape="passenger" />
   <vehicle id="straightN_104" type="vehicleN_104" route="edgeN_edgeS" depart="96" departLane="2" />

   <vType id="vehicleW_105" length="4.560000" accel="2.612000" decel="4.888000" sigma="0.5" minGap="2.438297" maxSpeed="143.194450" guiShape="passenger" />
   <vehicle id="straightW_105" type="vehicleW_105" route="edgeW_edgeE" depart="97" departLane="2" />

   <vType id="vehicleS_106" length="4.784000" accel="3.638000" decel="3.479000" sigma="0.5" minGap="2.438297" maxSpeed="143.194450" guiShape="passenger" />
   <vehicle id="straightS_106" type="vehicleS_106" route="edgeS_edgeN" depart="99" departLane="1" />

   <vType id="vehicleS_107" length="5.191000" accel="2.409000" decel="2.953000" sigma="0.5" minGap="2.438297" maxSpeed="143.194450" guiShape="passenger" />
   <vehicle id="straightS_107" type="vehicleS_107" route="edgeS_edgeN" depart="103" departLane="3" />

   <vType id="vehicleW_108" length="5.511000" accel="3.745000" decel="3.509000" sigma="0.5" minGap="2.438297" maxSpeed="143.194450" guiShape="passenger" />
   <vehicle id="rightW_108" type="vehicleW_108" route="edgeW_edgeS" depart="104" departLane="2" />
