<?xml version="1.0" encoding="UTF-8"?>

<!-- generated on 2021-10-23 04:06:18 by Eclipse SUMO netconvert Version 1.10.0
<configuration xmlns:xsi="http://www.w3.org/2001/XMLSchema-instance" xsi:noNamespaceSchemaLocation="http://sumo.dlr.de/xsd/netconvertConfiguration.xsd">

    <input>
        <node-files value="data9/cross.nod.xml"/>
        <edge-files value="data9/cross.edg.xml"/>
        <connection-files value="data9/cross.con.xml"/>
    </input>

    <output>
        <output-file value="data9/cross.net.xml"/>
    </output>

    <junctions>
        <no-turnarounds.except-turnlane value="true"/>
    </junctions>

    <report>
        <aggregate-warnings value="5"/>
    </report>

</configuration>
-->

<net version="1.9" junctionCornerDetail="5" limitTurnSpeed="5.50" xmlns:xsi="http://www.w3.org/2001/XMLSchema-instance" xsi:noNamespaceSchemaLocation="http://sumo.dlr.de/xsd/net_file.xsd">

    <location netOffset="900.00,900.00" convBoundary="0.00,0.00,1200.00,1500.00" origBoundary="-900.00,-900.00,300.00,600.00" projParameter="!"/>

    <edge id=":juncE_0" function="internal">
        <lane id=":juncE_0_0" index="0" disallow="pedestrian" speed="3.65" length="4.67" shape="1200.00,898.40 1201.20,899.20 1201.60,900.00 1201.20,900.80 1200.00,901.60"/>
    </edge>
    <edge id=":juncE_w0" function="walkingarea">
        <lane id=":juncE_w0_0" index="0" allow="pedestrian" speed="1.00" length="35.20" width="3.20" shape="1200.00,916.00 1200.00,919.20 1200.00,880.80 1200.00,884.00"/>
    </edge>
    <edge id=":juncMain_0" function="internal">
        <lane id=":juncMain_0_0" index="0" disallow="pedestrian" speed="6.86" length="5.34" shape="888.80,920.70 888.41,917.94 887.22,915.98 887.00,915.84"/>
    </edge>
    <edge id=":juncMain_1" function="internal">
        <lane id=":juncMain_1_0" index="0" disallow="pedestrian" speed="21.44" length="41.40" shape="888.80,920.70 888.80,879.30"/>
        <lane id=":juncMain_1_1" index="1" disallow="pedestrian" speed="21.44" length="41.40" shape="892.00,920.70 892.00,879.30"/>
        <lane id=":juncMain_1_2" index="2" disallow="pedestrian" speed="21.44" length="41.40" shape="895.20,920.70 895.20,879.30"/>
    </edge>
    <edge id=":juncMain_4" function="internal">
        <lane id=":juncMain_4_0" index="0" disallow="pedestrian" speed="12.50" length="19.96" shape="898.40,920.70 899.59,909.54 903.17,901.58"/>
        <lane id=":juncMain_4_1" index="1" disallow="pedestrian" speed="12.03" length="17.66" shape="898.40,920.70 899.59,910.94 903.17,903.98"/>
    </edge>
    <edge id=":juncMain_6" function="internal">
        <lane id=":juncMain_6_0" index="0" disallow="pedestrian" speed="3.65" length="2.34" shape="898.40,920.70 899.20,919.50 900.00,919.10"/>
    </edge>
    <edge id=":juncMain_36" function="internal">
        <lane id=":juncMain_36_0" index="0" disallow="pedestrian" speed="6.86" length="4.82" shape="887.00,915.84 885.26,914.79 882.50,914.40"/>
    </edge>
    <edge id=":juncMain_37" function="internal">
        <lane id=":juncMain_37_0" index="0" disallow="pedestrian" speed="12.50" length="16.15" shape="903.17,901.58 909.14,896.79 917.50,895.20"/>
    </edge>
    <edge id=":juncMain_38" function="internal">
        <lane id=":juncMain_38_0" index="0" disallow="pedestrian" speed="12.03" length="15.76" shape="903.17,903.98 909.14,899.79 917.50,898.40"/>
    </edge>
    <edge id=":juncMain_39" function="internal">
        <lane id=":juncMain_39_0" index="0" disallow="pedestrian" speed="3.65" length="2.34" shape="900.00,919.10 900.80,919.50 901.60,920.70"/>
    </edge>
    <edge id=":juncMain_7" function="internal">
        <lane id=":juncMain_7_0" index="0" disallow="pedestrian" speed="6.86" length="5.34" shape="917.50,914.40 914.74,914.79 912.78,915.97 912.64,916.20"/>
        <lane id=":juncMain_7_1" index="1" disallow="pedestrian" speed="7.64" length="7.67" shape="917.50,914.40 913.34,914.79 910.38,915.97 910.17,916.20"/>
        <lane id=":juncMain_7_2" index="2" disallow="pedestrian" speed="7.64" length="8.30" shape="917.50,911.20 914.74,911.79 912.78,913.58 911.73,916.20"/>
        <lane id=":juncMain_7_3" index="3" disallow="pedestrian" speed="8.29" length="10.72" shape="917.50,911.20 913.34,911.79 910.38,913.58 908.80,916.20"/>
    </edge>
    <edge id=":juncMain_11" function="internal">
        <lane id=":juncMain_11_0" index="0" disallow="pedestrian" speed="19.99" length="35.00" shape="917.50,911.20 882.50,911.20"/>
        <lane id=":juncMain_11_1" index="1" disallow="pedestrian" speed="19.99" length="35.00" shape="917.50,908.00 882.50,908.00"/>
        <lane id=":juncMain_11_2" index="2" disallow="pedestrian" speed="19.99" length="35.00" shape="917.50,904.80 882.50,904.80"/>
        <lane id=":juncMain_11_3" index="3" disallow="pedestrian" speed="19.99" length="35.00" shape="917.50,901.60 882.50,901.60"/>
    </edge>
    <edge id=":juncMain_15" function="internal">
        <lane id=":juncMain_15_0" index="0" disallow="pedestrian" speed="12.47" length="10.26" shape="917.50,901.60 907.74,900.21 907.40,900.00"/>
        <lane id=":juncMain_15_1" index="1" disallow="pedestrian" speed="12.03" length="8.83" shape="917.50,901.60 909.14,900.21 908.85,900.00"/>
    </edge>
    <edge id=":juncMain_17" function="internal">
        <lane id=":juncMain_17_0" index="0" disallow="pedestrian" speed="3.65" length="2.34" shape="917.50,901.60 916.30,900.80 915.90,900.00"/>
    </edge>
    <edge id=":juncMain_40" function="internal">
        <lane id=":juncMain_40_0" index="0" disallow="pedestrian" speed="6.86" length="4.82" shape="912.64,916.20 911.59,917.94 911.20,920.70"/>
    </edge>
    <edge id=":juncMain_41" function="internal">
        <lane id=":juncMain_41_0" index="0" disallow="pedestrian" speed="7.64" length="5.17" shape="910.17,916.20 908.59,917.94 908.00,920.70"/>
    </edge>
    <edge id=":juncMain_42" function="internal">
        <lane id=":juncMain_42_0" index="0" disallow="pedestrian" speed="7.64" length="4.54" shape="911.73,916.20 911.59,916.54 911.20,920.70"/>
    </edge>
    <edge id=":juncMain_43" function="internal">
        <lane id=":juncMain_43_0" index="0" disallow="pedestrian" speed="8.29" length="4.60" shape="908.80,916.20 908.59,916.54 908.00,920.70"/>
    </edge>
    <edge id=":juncMain_44" function="internal">
        <lane id=":juncMain_44_0" index="0" disallow="pedestrian" speed="12.47" length="25.71" shape="907.40,900.00 900.78,896.03 896.59,889.06 895.20,879.30"/>
    </edge>
    <edge id=":juncMain_45" function="internal">
        <lane id=":juncMain_45_0" index="0" disallow="pedestrian" speed="12.03" length="24.59" shape="908.85,900.00 903.18,896.03 899.59,889.06 898.40,879.30"/>
    </edge>
    <edge id=":juncMain_46" function="internal">
        <lane id=":juncMain_46_0" index="0" disallow="pedestrian" speed="3.65" length="2.34" shape="915.90,900.00 916.30,899.20 917.50,898.40"/>
    </edge>
    <edge id=":juncMain_18" function="internal">
        <lane id=":juncMain_18_0" index="0" disallow="pedestrian" speed="6.86" length="5.34" shape="911.20,879.30 911.59,882.06 912.78,884.02 913.00,884.16"/>
    </edge>
    <edge id=":juncMain_19" function="internal">
        <lane id=":juncMain_19_0" index="0" disallow="pedestrian" speed="21.44" length="41.40" shape="911.20,879.30 911.20,920.70"/>
        <lane id=":juncMain_19_1" index="1" disallow="pedestrian" speed="21.44" length="41.40" shape="908.00,879.30 908.00,920.70"/>
        <lane id=":juncMain_19_2" index="2" disallow="pedestrian" speed="21.44" length="41.40" shape="904.80,879.30 904.80,920.70"/>
    </edge>
    <edge id=":juncMain_22" function="internal">
        <lane id=":juncMain_22_0" index="0" disallow="pedestrian" speed="12.50" length="19.96" shape="901.60,879.30 900.41,890.46 896.83,898.42"/>
        <lane id=":juncMain_22_1" index="1" disallow="pedestrian" speed="12.03" length="17.66" shape="901.60,879.30 900.41,889.06 896.83,896.02"/>
    </edge>
    <edge id=":juncMain_24" function="internal">
        <lane id=":juncMain_24_0" index="0" disallow="pedestrian" speed="3.65" length="2.34" shape="901.60,879.30 900.80,880.50 900.00,880.90"/>
    </edge>
    <edge id=":juncMain_47" function="internal">
        <lane id=":juncMain_47_0" index="0" disallow="pedestrian" speed="6.86" length="4.82" shape="913.00,884.16 914.74,885.21 917.50,885.60"/>
    </edge>
    <edge id=":juncMain_48" function="internal">
        <lane id=":juncMain_48_0" index="0" disallow="pedestrian" speed="12.50" length="16.15" shape="896.83,898.42 890.86,903.21 882.50,904.80"/>
    </edge>
    <edge id=":juncMain_49" function="internal">
        <lane id=":juncMain_49_0" index="0" disallow="pedestrian" speed="12.03" length="15.76" shape="896.83,896.02 890.86,900.21 882.50,901.60"/>
    </edge>
    <edge id=":juncMain_50" function="internal">
        <lane id=":juncMain_50_0" index="0" disallow="pedestrian" speed="3.65" length="2.34" shape="900.00,880.90 899.20,880.50 898.40,879.30"/>
    </edge>
    <edge id=":juncMain_25" function="internal">
        <lane id=":juncMain_25_0" index="0" disallow="pedestrian" speed="6.86" length="5.34" shape="882.50,885.60 885.26,885.21 887.22,884.03 887.36,883.80"/>
        <lane id=":juncMain_25_1" index="1" disallow="pedestrian" speed="7.64" length="7.67" shape="882.50,885.60 886.66,885.21 889.62,884.03 889.83,883.80"/>
        <lane id=":juncMain_25_2" index="2" disallow="pedestrian" speed="7.64" length="8.30" shape="882.50,888.80 885.26,888.21 887.22,886.42 888.27,883.80"/>
        <lane id=":juncMain_25_3" index="3" disallow="pedestrian" speed="8.29" length="10.72" shape="882.50,888.80 886.66,888.21 889.62,886.42 891.20,883.80"/>
    </edge>
    <edge id=":juncMain_29" function="internal">
        <lane id=":juncMain_29_0" index="0" disallow="pedestrian" speed="19.99" length="35.00" shape="882.50,888.80 917.50,888.80"/>
        <lane id=":juncMain_29_1" index="1" disallow="pedestrian" speed="19.99" length="35.00" shape="882.50,892.00 917.50,892.00"/>
        <lane id=":juncMain_29_2" index="2" disallow="pedestrian" speed="19.99" length="35.00" shape="882.50,895.20 917.50,895.20"/>
        <lane id=":juncMain_29_3" index="3" disallow="pedestrian" speed="19.99" length="35.00" shape="882.50,898.40 917.50,898.40"/>
    </edge>
    <edge id=":juncMain_33" function="internal">
        <lane id=":juncMain_33_0" index="0" disallow="pedestrian" speed="12.47" length="10.26" shape="882.50,898.40 892.26,899.79 892.60,900.00"/>
        <lane id=":juncMain_33_1" index="1" disallow="pedestrian" speed="12.03" length="8.83" shape="882.50,898.40 890.86,899.79 891.15,900.00"/>
    </edge>
    <edge id=":juncMain_35" function="internal">
        <lane id=":juncMain_35_0" index="0" disallow="pedestrian" speed="3.65" length="2.34" shape="882.50,898.40 883.70,899.20 884.10,900.00"/>
    </edge>
    <edge id=":juncMain_51" function="internal">
        <lane id=":juncMain_51_0" index="0" disallow="pedestrian" speed="6.86" length="4.82" shape="887.36,883.80 888.41,882.06 888.80,879.30"/>
    </edge>
    <edge id=":juncMain_52" function="internal">
        <lane id=":juncMain_52_0" index="0" disallow="pedestrian" speed="7.64" length="5.17" shape="889.83,883.80 891.41,882.06 892.00,879.30"/>
    </edge>
    <edge id=":juncMain_53" function="internal">
        <lane id=":juncMain_53_0" index="0" disallow="pedestrian" speed="7.64" length="4.54" shape="888.27,883.80 888.41,883.46 888.80,879.30"/>
    </edge>
    <edge id=":juncMain_54" function="internal">
        <lane id=":juncMain_54_0" index="0" disallow="pedestrian" speed="8.29" length="4.60" shape="891.20,883.80 891.41,883.46 892.00,879.30"/>
    </edge>
    <edge id=":juncMain_55" function="internal">
        <lane id=":juncMain_55_0" index="0" disallow="pedestrian" speed="12.47" length="25.71" shape="892.60,900.00 899.22,903.97 903.41,910.94 904.80,920.70"/>
    </edge>
    <edge id=":juncMain_56" function="internal">
        <lane id=":juncMain_56_0" index="0" disallow="pedestrian" speed="12.03" length="24.59" shape="891.15,900.00 896.82,903.97 900.41,910.94 901.60,920.70"/>
    </edge>
    <edge id=":juncMain_57" function="internal">
        <lane id=":juncMain_57_0" index="0" disallow="pedestrian" speed="3.65" length="2.34" shape="884.10,900.00 883.70,900.80 882.50,901.60"/>
    </edge>
    <edge id=":juncMain_c0" function="crossing" crossingEdges="edgeN_I edgeN_O">
        <lane id=":juncMain_c0_0" index="0" allow="pedestrian" speed="1.00" length="25.60" width="4.50" shape="912.80,918.45 887.20,918.45"/>
    </edge>
    <edge id=":juncMain_c1" function="crossing" crossingEdges="edgeE_I edgeE_O">
        <lane id=":juncMain_c1_0" index="0" allow="pedestrian" speed="1.00" length="32.00" width="4.50" shape="915.25,884.00 915.25,916.00"/>
    </edge>
    <edge id=":juncMain_c2" function="crossing" crossingEdges="edgeS_I edgeS_O">
        <lane id=":juncMain_c2_0" index="0" allow="pedestrian" speed="1.00" length="25.60" width="4.50" shape="887.20,881.55 912.80,881.55"/>
    </edge>
    <edge id=":juncMain_c3" function="crossing" crossingEdges="edgeW_I edgeW_O">
        <lane id=":juncMain_c3_0" index="0" allow="pedestrian" speed="1.00" length="32.00" width="4.50" shape="884.75,916.00 884.75,884.00"/>
    </edge>
    <edge id=":juncMain_w0" function="walkingarea">
        <lane id=":juncMain_w0_0" index="0" allow="pedestrian" speed="1.00" length="3.82" width="4.50" shape="882.50,916.00 882.50,919.20 884.00,920.70 887.20,920.70 887.07,919.26 886.68,918.09 886.02,917.17 885.11,916.52 883.94,916.13"/>
    </edge>
    <edge id=":juncMain_w1" function="walkingarea">
        <lane id=":juncMain_w1_0" index="0" allow="pedestrian" speed="1.00" length="3.82" width="4.50" shape="912.80,920.70 916.00,920.70 917.50,919.20 917.50,916.00 916.06,916.13 914.89,916.52 913.98,917.17 913.32,918.09 912.93,919.26"/>
    </edge>
    <edge id=":juncMain_w2" function="walkingarea">
        <lane id=":juncMain_w2_0" index="0" allow="pedestrian" speed="1.00" length="3.82" width="4.50" shape="917.50,884.00 917.50,880.80 916.00,879.30 912.80,879.30 912.93,880.74 913.32,881.91 913.98,882.83 914.89,883.48 916.06,883.87"/>
    </edge>
    <edge id=":juncMain_w3" function="walkingarea">
        <lane id=":juncMain_w3_0" index="0" allow="pedestrian" speed="1.00" length="3.82" width="4.50" shape="887.20,879.30 884.00,879.30 882.50,880.80 882.50,884.00 883.94,883.87 885.11,883.48 886.02,882.83 886.68,881.91 887.07,880.74"/>
    </edge>
    <edge id=":juncN_0" function="internal">
        <lane id=":juncN_0_0" index="0" disallow="pedestrian" speed="3.65" length="4.67" shape="901.60,1500.00 900.80,1501.20 900.00,1501.60 899.20,1501.20 898.40,1500.00"/>
    </edge>
    <edge id=":juncN_w0" function="walkingarea">
        <lane id=":juncN_w0_0" index="0" allow="pedestrian" speed="1.00" length="28.80" width="3.20" shape="887.20,1500.00 884.00,1500.00 916.00,1500.00 912.80,1500.00"/>
    </edge>
    <edge id=":juncS_0" function="internal">
        <lane id=":juncS_0_0" index="0" disallow="pedestrian" speed="3.65" length="4.67" shape="898.40,0.00 899.20,-1.20 900.00,-1.60 900.80,-1.20 901.60,0.00"/>
    </edge>
    <edge id=":juncS_w0" function="walkingarea">
        <lane id=":juncS_w0_0" index="0" allow="pedestrian" speed="1.00" length="28.80" width="3.20" shape="912.80,0.00 916.00,0.00 884.00,0.00 887.20,0.00"/>
    </edge>
    <edge id=":juncW_0" function="internal">
        <lane id=":juncW_0_0" index="0" disallow="pedestrian" speed="3.65" length="4.67" shape="0.00,901.60 -1.20,900.80 -1.60,900.00 -1.20,899.20 0.00,898.40"/>
    </edge>
    <edge id=":juncW_w0" function="walkingarea">
        <lane id=":juncW_w0_0" index="0" allow="pedestrian" speed="1.00" length="35.20" width="3.20" shape="0.00,884.00 0.00,880.80 0.00,919.20 0.00,916.00"/>
    </edge>

    <edge id="edgeE_I" from="juncMain" to="juncE" priority="46">
        <lane id="edgeE_I_0" index="0" allow="pedestrian" speed="16.82" length="282.50" shape="917.50,882.40 1200.00,882.40"/>
        <lane id="edgeE_I_1" index="1" disallow="pedestrian" speed="16.82" length="282.50" shape="917.50,885.60 1200.00,885.60"/>
        <lane id="edgeE_I_2" index="2" disallow="pedestrian" speed="16.82" length="282.50" shape="917.50,888.80 1200.00,888.80"/>
        <lane id="edgeE_I_3" index="3" disallow="pedestrian" speed="16.82" length="282.50" shape="917.50,892.00 1200.00,892.00"/>
        <lane id="edgeE_I_4" index="4" disallow="pedestrian" speed="16.82" length="282.50" shape="917.50,895.20 1200.00,895.20"/>
        <lane id="edgeE_I_5" index="5" disallow="pedestrian" speed="16.82" length="282.50" shape="917.50,898.40 1200.00,898.40"/>
    </edge>
    <edge id="edgeE_O" from="juncE" to="juncMain" priority="78">
        <lane id="edgeE_O_0" index="0" allow="pedestrian" speed="23.16" length="282.50" shape="1200.00,917.60 917.50,917.60"/>
        <lane id="edgeE_O_1" index="1" disallow="pedestrian" speed="23.16" length="282.50" shape="1200.00,914.40 917.50,914.40"/>
        <lane id="edgeE_O_2" index="2" disallow="pedestrian" speed="23.16" length="282.50" shape="1200.00,911.20 917.50,911.20"/>
        <lane id="edgeE_O_3" index="3" disallow="pedestrian" speed="23.16" length="282.50" shape="1200.00,908.00 917.50,908.00"/>
        <lane id="edgeE_O_4" index="4" disallow="pedestrian" speed="23.16" length="282.50" shape="1200.00,904.80 917.50,904.80"/>
        <lane id="edgeE_O_5" index="5" disallow="pedestrian" speed="23.16" length="282.50" shape="1200.00,901.60 917.50,901.60"/>
    </edge>
    <edge id="edgeN_I" from="juncMain" to="juncN" priority="46">
        <lane id="edgeN_I_0" index="0" allow="pedestrian" speed="20.29" length="579.30" shape="914.40,920.70 914.40,1500.00"/>
        <lane id="edgeN_I_1" index="1" disallow="pedestrian" speed="20.29" length="579.30" shape="911.20,920.70 911.20,1500.00"/>
        <lane id="edgeN_I_2" index="2" disallow="pedestrian" speed="20.29" length="579.30" shape="908.00,920.70 908.00,1500.00"/>
        <lane id="edgeN_I_3" index="3" disallow="pedestrian" speed="20.29" length="579.30" shape="904.80,920.70 904.80,1500.00"/>
        <lane id="edgeN_I_4" index="4" disallow="pedestrian" speed="20.29" length="579.30" shape="901.60,920.70 901.60,1500.00"/>
    </edge>
    <edge id="edgeN_O" from="juncN" to="juncMain" priority="78">
        <lane id="edgeN_O_0" index="0" allow="pedestrian" speed="22.59" length="579.30" shape="885.60,1500.00 885.60,920.70"/>
        <lane id="edgeN_O_1" index="1" disallow="pedestrian" speed="22.59" length="579.30" shape="888.80,1500.00 888.80,920.70"/>
        <lane id="edgeN_O_2" index="2" disallow="pedestrian" speed="22.59" length="579.30" shape="892.00,1500.00 892.00,920.70"/>
        <lane id="edgeN_O_3" index="3" disallow="pedestrian" speed="22.59" length="579.30" shape="895.20,1500.00 895.20,920.70"/>
        <lane id="edgeN_O_4" index="4" disallow="pedestrian" speed="22.59" length="579.30" shape="898.40,1500.00 898.40,920.70"/>
    </edge>
    <edge id="edgeS_I" from="juncMain" to="juncS" priority="46">
        <lane id="edgeS_I_0" index="0" allow="pedestrian" speed="20.29" length="879.30" shape="885.60,879.30 885.60,0.00"/>
        <lane id="edgeS_I_1" index="1" disallow="pedestrian" speed="20.29" length="879.30" shape="888.80,879.30 888.80,0.00"/>
        <lane id="edgeS_I_2" index="2" disallow="pedestrian" speed="20.29" length="879.30" shape="892.00,879.30 892.00,0.00"/>
        <lane id="edgeS_I_3" index="3" disallow="pedestrian" speed="20.29" length="879.30" shape="895.20,879.30 895.20,0.00"/>
        <lane id="edgeS_I_4" index="4" disallow="pedestrian" speed="20.29" length="879.30" shape="898.40,879.30 898.40,0.00"/>
    </edge>
    <edge id="edgeS_O" from="juncS" to="juncMain" priority="78">
        <lane id="edgeS_O_0" index="0" allow="pedestrian" speed="22.59" length="879.30" shape="914.40,0.00 914.40,879.30"/>
        <lane id="edgeS_O_1" index="1" disallow="pedestrian" speed="22.59" length="879.30" shape="911.20,0.00 911.20,879.30"/>
        <lane id="edgeS_O_2" index="2" disallow="pedestrian" speed="22.59" length="879.30" shape="908.00,0.00 908.00,879.30"/>
        <lane id="edgeS_O_3" index="3" disallow="pedestrian" speed="22.59" length="879.30" shape="904.80,0.00 904.80,879.30"/>
        <lane id="edgeS_O_4" index="4" disallow="pedestrian" speed="22.59" length="879.30" shape="901.60,0.00 901.60,879.30"/>
    </edge>
    <edge id="edgeW_I" from="juncMain" to="juncW" priority="46">
        <lane id="edgeW_I_0" index="0" allow="pedestrian" speed="16.82" length="882.50" shape="882.50,917.60 0.00,917.60"/>
        <lane id="edgeW_I_1" index="1" disallow="pedestrian" speed="16.82" length="882.50" shape="882.50,914.40 0.00,914.40"/>
        <lane id="edgeW_I_2" index="2" disallow="pedestrian" speed="16.82" length="882.50" shape="882.50,911.20 0.00,911.20"/>
        <lane id="edgeW_I_3" index="3" disallow="pedestrian" speed="16.82" length="882.50" shape="882.50,908.00 0.00,908.00"/>
        <lane id="edgeW_I_4" index="4" disallow="pedestrian" speed="16.82" length="882.50" shape="882.50,904.80 0.00,904.80"/>
        <lane id="edgeW_I_5" index="5" disallow="pedestrian" speed="16.82" length="882.50" shape="882.50,901.60 0.00,901.60"/>
    </edge>
    <edge id="edgeW_O" from="juncW" to="juncMain" priority="78">
        <lane id="edgeW_O_0" index="0" allow="pedestrian" speed="23.16" length="882.50" shape="0.00,882.40 882.50,882.40"/>
        <lane id="edgeW_O_1" index="1" disallow="pedestrian" speed="23.16" length="882.50" shape="0.00,885.60 882.50,885.60"/>
        <lane id="edgeW_O_2" index="2" disallow="pedestrian" speed="23.16" length="882.50" shape="0.00,888.80 882.50,888.80"/>
        <lane id="edgeW_O_3" index="3" disallow="pedestrian" speed="23.16" length="882.50" shape="0.00,892.00 882.50,892.00"/>
        <lane id="edgeW_O_4" index="4" disallow="pedestrian" speed="23.16" length="882.50" shape="0.00,895.20 882.50,895.20"/>
        <lane id="edgeW_O_5" index="5" disallow="pedestrian" speed="23.16" length="882.50" shape="0.00,898.40 882.50,898.40"/>
    </edge>

    <tlLogic id="juncMain" type="static" programID="0" offset="0">
        <phase duration="30" state="rrrrrrrggggGGGGgggrrrrrrrggggGGGGgggGrGr"/>
        <phase duration="5"  state="rrrrrrrggggGGGGgggrrrrrrrggggGGGGgggrrrr"/>
        <phase duration="5"  state="rrrrrrryyyyyyyyyyyrrrrrrryyyyyyyyyyyrrrr"/>
        <phase duration="29" state="gGGGrrrrrrrrrrrrrrgGGGrrrrrrrrrrrrrrrGrG"/>
        <phase duration="5"  state="gGGGrrrrrrrrrrrrrrgGGGrrrrrrrrrrrrrrrrrr"/>
        <phase duration="5"  state="yyyyrrrrrrrrrrrrrryyyyrrrrrrrrrrrrrrrrrr"/>
        <phase duration="6"  state="rrrrGGGrrrrrrrrrrrrrrrGGGrrrrrrrrrrrrrrr"/>
        <phase duration="5"  state="rrrryyyrrrrrrrrrrrrrrryyyrrrrrrrrrrrrrrr"/>
    </tlLogic>

    <junction id="juncE" type="priority" x="1200.00" y="900.00" incLanes="edgeE_I_0 edgeE_I_1 edgeE_I_2 edgeE_I_3 edgeE_I_4 edgeE_I_5" intLanes=":juncE_0_0" shape="1200.00,900.00 1200.00,880.80 1200.00,900.00">
        <request index="0" response="0" foes="0" cont="0"/>
    </junction>
    <junction id="juncMain" type="traffic_light" x="900.00" y="900.00" incLanes="edgeN_O_0 edgeN_O_1 edgeN_O_2 edgeN_O_3 edgeN_O_4 edgeE_O_0 edgeE_O_1 edgeE_O_2 edgeE_O_3 edgeE_O_4 edgeE_O_5 edgeS_O_0 edgeS_O_1 edgeS_O_2 edgeS_O_3 edgeS_O_4 edgeW_O_0 edgeW_O_1 edgeW_O_2 edgeW_O_3 edgeW_O_4 edgeW_O_5 :juncMain_w1_0 :juncMain_w2_0 :juncMain_w3_0 :juncMain_w0_0" intLanes=":juncMain_36_0 :juncMain_1_0 :juncMain_1_1 :juncMain_1_2 :juncMain_37_0 :juncMain_38_0 :juncMain_39_0 :juncMain_40_0 :juncMain_41_0 :juncMain_42_0 :juncMain_43_0 :juncMain_11_0 :juncMain_11_1 :juncMain_11_2 :juncMain_11_3 :juncMain_44_0 :juncMain_45_0 :juncMain_46_0 :juncMain_47_0 :juncMain_19_0 :juncMain_19_1 :juncMain_19_2 :juncMain_48_0 :juncMain_49_0 :juncMain_50_0 :juncMain_51_0 :juncMain_52_0 :juncMain_53_0 :juncMain_54_0 :juncMain_29_0 :juncMain_29_1 :juncMain_29_2 :juncMain_29_3 :juncMain_55_0 :juncMain_56_0 :juncMain_57_0 :juncMain_c0_0 :juncMain_c1_0 :juncMain_c2_0 :juncMain_c3_0" shape="884.00,920.70 916.00,920.70 916.17,919.87 916.38,919.58 916.67,919.37 917.04,919.24 917.50,919.20 917.50,880.80 916.67,880.63 916.38,880.42 916.17,880.13 916.04,879.76 916.00,879.30 884.00,879.30 883.83,880.13 883.62,880.42 883.33,880.63 882.96,880.76 882.50,880.80 882.50,919.20 883.33,919.37 883.62,919.58 883.83,919.87 883.96,920.24">
        <request index="0"  response="1001000000000000000000000000000000000000" foes="1001000000000000000000000000000000000000" cont="1"/>
        <request index="1"  response="0101011111111110000000011111100000000000" foes="0101011111111110110000011111100000000000" cont="0"/>
        <request index="2"  response="0101011111111110000000011111100000000000" foes="0101011111111110110000011111100000000000" cont="0"/>
        <request index="3"  response="0101011111111110000000011111100000000000" foes="0101011111111110110000011111100000000000" cont="0"/>
        <request index="4"  response="0011011111100000001110011111100000000000" foes="0011011111100000001110111111100000000000" cont="1"/>
        <request index="5"  response="0011011111100000001110011111100000000000" foes="0011011111100000001110111111100000000000" cont="1"/>
        <request index="6"  response="0001011000000000000000000000000000000000" foes="0001011000000000000000000000000000000000" cont="1"/>
        <request index="7"  response="0011000000000000000000000000000000000000" foes="0011000000000000001110000000001000000000" cont="1"/>
        <request index="8"  response="0011000000000000000000000000000000000000" foes="0011000000000000001110000000010000000000" cont="1"/>
        <request index="9"  response="0011000000000000000000000000000010000000" foes="0011000000000000001110000000000010000000" cont="1"/>
        <request index="10" response="0011000000000000000000000000000100000000" foes="0011000000000000001110000000000100000000" cont="1"/>
        <request index="11" response="1010000000000000110000000000000000110000" foes="1010111000000000111110000000000000111110" cont="0"/>
        <request index="12" response="1010000000000000110000000000000000110000" foes="1010111000000000111110000000000000111110" cont="0"/>
        <request index="13" response="1010000000000000110000000000000000110000" foes="1010111000000000111110000000000000111110" cont="0"/>
        <request index="14" response="1010000000000000110000000000000000110000" foes="1010111000000000111110000000000000111110" cont="0"/>
        <request index="15" response="0110000111100000110000000000000000110000" foes="0110000111100001111110000000000000111110" cont="1"/>
        <request index="16" response="0110000111100000110000000000000000110000" foes="0110000111100001111110000000000000111110" cont="1"/>
        <request index="17" response="0010000111100000000000000000000000110000" foes="0010000111100000000000000000000000110000" cont="1"/>
        <request index="18" response="0110000000000000000000000000000000000000" foes="0110000000000000000000000000000000000000" cont="1"/>
        <request index="19" response="0101011111100000000000011111111110000000" foes="0101011111100000000000011111111110110000" cont="0"/>
        <request index="20" response="0101011111100000000000011111111110000000" foes="0101011111100000000000011111111110110000" cont="0"/>
        <request index="21" response="0101011111100000000000011111111110000000" foes="0101011111100000000000011111111110110000" cont="0"/>
        <request index="22" response="1100011111100000000000011111100000001110" foes="1100111111100000000000011111100000001110" cont="1"/>
        <request index="23" response="1100011111100000000000011111100000001110" foes="1100111111100000000000011111100000001110" cont="1"/>
        <request index="24" response="0100000000000000000000011000000000000000" foes="0100000000000000000000011000000000000000" cont="1"/>
        <request index="25" response="1100000000000000000000000000000000000000" foes="1100000000001000000000000000000000001110" cont="1"/>
        <request index="26" response="1100000000000000000000000000000000000000" foes="1100000000010000000000000000000000001110" cont="1"/>
        <request index="27" response="1100000000000010000000000000000000000000" foes="1100000000000010000000000000000000001110" cont="1"/>
        <request index="28" response="1100000000000100000000000000000000000000" foes="1100000000000100000000000000000000001110" cont="1"/>
        <request index="29" response="1010000000000000110000000000000000110000" foes="1010000000000000111110111000000000111110" cont="0"/>
        <request index="30" response="1010000000000000110000000000000000110000" foes="1010000000000000111110111000000000111110" cont="0"/>
        <request index="31" response="1010000000000000110000000000000000110000" foes="1010000000000000111110111000000000111110" cont="0"/>
        <request index="32" response="1010000000000000110000000000000000110000" foes="1010000000000000111110111000000000111110" cont="0"/>
        <request index="33" response="1001000000000000110000000111100000110000" foes="1001000000000000111110000111100001111110" cont="1"/>
        <request index="34" response="1001000000000000110000000111100000110000" foes="1001000000000000111110000111100001111110" cont="1"/>
        <request index="35" response="1000000000000000110000000111100000000000" foes="1000000000000000110000000111100000000000" cont="1"/>
        <request index="36" response="0000000000000000000000000000000000000000" foes="0000011000000000001110000000011111111111" cont="0"/>
        <request index="37" response="0000000000000000000000000000000000000000" foes="0000000111100000000001111111111110110000" cont="0"/>
        <request index="38" response="0000000000000000000000000000000000000000" foes="0000000000011111111111011000000000001110" cont="0"/>
        <request index="39" response="0000000000000000000000000000000000000000" foes="0000111111111110110000000111100000000001" cont="0"/>
    </junction>