<additional>
   <tlLogic id="juncMain" type="static" programID="1" offset="0">
       <phase duration="35.790435" state="GGGGGgggrrrrrGGGGGgggrrrrrrGrG"/>
       <phase duration="3.310934" state="yyyyyyyyrrrrryyyyyyyyrrrrrrGrG"/>
       <phase duration="4.242824" state="rrrrrrrrrrrrrrrrrrrrrrrrrrrGrG"/>
       <phase duration="26.870889" state="rrrrrrrrrrGGGrrrrrrrrrrGGGrrrr"/>
       <phase duration="22.324855" state="rrrrrrrrGGgggrrrrrrrrGGgggGrGr"/>
       <phase duration="5.831605" state="rrrrrrrryyyyyrrrrrrrryyyyyGrGr"/>
       <phase duration="3.116490" state="rrrrrrrrrrrrrrrrrrrrrrrrrrGrGr"/>
   </tlLogic>
</additional>
