<edges xmlns:xsi="http://www.w3.org/2001/XMLSchema-instance" xsi:noNamespaceSchemaLocation="http://sumo.dlr.de/xsd/edges_file.xsd">
   <edge id="edgeN_O" from="juncN" to="juncMain" priority="78" numLanes="6" speed="18.34050439535608" disallow="pedestrian">
      <lane index="0" allow="pedestrian" />
   </edge>
   <edge id="edgeN_I" from="juncMain" to="juncN" priority="46" numLanes="6" speed="18.569385708529044" disallow="pedestrian">
      <lane index="0" allow="pedestrian" />
   </edge>

   <edge id="edgeS_O" from="juncS" to="juncMain" priority="78" numLanes="6" speed="18.34050439535608" disallow="pedestrian">
      <lane index="0" allow="pedestrian" />
   </edge>
   <edge id="edgeS_I" from="juncMain" to="juncS" priority="46" numLanes="6" speed="18.569385708529044" disallow="pedestrian">
      <lane index="0" allow="pedestrian" />
   </edge>

   <edge id="edgeW_O" from="juncW" to="juncMain" priority="78" numLanes="4" speed="21.517720827734323" disallow="pedestrian">
      <lane index="0" allow="pedestrian" />
   </edge>
   <edge id="edgeW_I" from="juncMain" to="juncW" priority="46" numLanes="4" speed="15.393173941468653" disallow="pedestrian">
      <lane index="0" allow="pedestrian" />
   </edge>

   <edge id="edgeE_O" from="juncE" to="juncMain" priority="78" numLanes="4" speed="21.517720827734323" disallow="pedestrian">
      <lane index="0" allow="pedestrian" />
   </edge>
   <edge id="edgeE_I" from="juncMain" to="juncE" priority="46" numLanes="4" speed="15.393173941468653" disallow="pedestrian">
      <lane index="0" allow="pedestrian" />
   </edge>


</edges>