<routes>
   <personFlow id="pRegN" begin="0" end="3000" personsPerHour="85.868107">
        <walk edges="edgeN_O edgeS_I" speed="1.157209"/>
    </personFlow>
   <personFlow id="pRegS" begin="0" end="3000" personsPerHour="1079.294132">
        <walk edges="edgeS_O edgeN_I" speed="1.244613"/>
    </personFlow>
   <personFlow id="pRegW" begin="0" end="3000" personsPerHour="439.393187">
        <walk edges="edgeW_O edgeE_I" speed="1.979774"/>
    </personFlow>
   <personFlow id="pRegE" begin="0" end="3000" personsPerHour="140.491346">
        <walk edges="edgeE_O edgeW_I" speed="1.919952"/>
    </personFlow>
   <personFlow id="pOppN" begin="0" end="3000" personsPerHour="725.647761" departPos="800.000000">
        <walk edges="edgeN_I edgeS_O" speed="1.416129"/>
    </personFlow>
   <personFlow id="pOppS" begin="0" end="3000" personsPerHour="561.475022" departPos="400.000000">
        <walk edges="edgeS_I edgeN_O" speed="1.314848"/>
    </personFlow>
   <personFlow id="pOppW" begin="0" end="3000" personsPerHour="585.736032" departPos="600.000000">
        <walk edges="edgeW_I edgeE_O" speed="1.058943"/>
    </personFlow>
   <personFlow id="pOppE" begin="0" end="3000" personsPerHour="108.254159" departPos="500.000000">
        <walk edges="edgeE_I edgeW_O" speed="1.922170"/>
    </personFlow>

    <route id="edgeN_edgeN" edges="edgeN_O edgeN_I" />
    <route id="edgeN_edgeS" edges="edgeN_O edgeS_I" />
    <route id="edgeN_edgeW" edges="edgeN_O edgeW_I" />
    <route id="edgeN_edgeE" edges="edgeN_O edgeE_I" />
    <route id="edgeS_edgeN" edges="edgeS_O edgeN_I" />
    <route id="edgeS_edgeS" edges="edgeS_O edgeS_I" />
    <route id="edgeS_edgeW" edges="edgeS_O edgeW_I" />
    <route id="edgeS_edgeE" edges="edgeS_O edgeE_I" />
    <route id="edgeW_edgeN" edges="edgeW_O edgeN_I" />
    <route id="edgeW_edgeS" edges="edgeW_O edgeS_I" />
    <route id="edgeW_edgeW" edges="edgeW_O edgeW_I" />
    <route id="edgeW_edgeE" edges="edgeW_O edgeE_I" />
    <route id="edgeE_edgeN" edges="edgeE_O edgeN_I" />
    <route id="edgeE_edgeS" edges="edgeE_O edgeS_I" />
    <route id="edgeE_edgeW" edges="edgeE_O edgeW_I" />
    <route id="edgeE_edgeE" edges="edgeE_O edgeE_I" />
    
   <vType id="vehicleS_0" length="4.261000" accel="3.210000" decel="5.608000" sigma="0.5" minGap="2.550955" maxSpeed="121.639579" guiShape="passenger" />
   <vehicle id="straightS_0" type="vehicleS_0" route="edgeS_edgeN" depart="0" departLane="2" />

   <vType id="vehicleE_1" length="4.277000" accel="3.056000" decel="5.114000" sigma="0.5" minGap="2.550955" maxSpeed="121.639579" guiShape="passenger" />
   <vehicle id="leftE_1" type="vehicleE_1" route="edgeE_edgeS" depart="0" departLane="3" />

   <vType id="vehicleN_2" length="5.235000" accel="2.370000" decel="6.160000" sigma="0.5" minGap="2.550955" maxSpeed="121.639579" guiShape="passenger" />
   <vehicle id="straightN_2" type="vehicleN_2" route="edgeN_edgeS" depart="1" departLane="5" />

   <vType id="vehicleW_3" length="4.449000" accel="2.470000" decel="3.128000" sigma="0.5" minGap="2.550955" maxSpeed="121.639579" guiShape="passenger" />
   <vehicle id="straightW_3" type="vehicleW_3" route="edgeW_edgeE" depart="1" departLane="2" />

   <vType id="vehicleE_4" length="4.371000" accel="2.455000" decel="3.710000" sigma="0.5" minGap="2.550955" maxSpeed="121.639579" guiShape="passenger" />
   <vehicle id="straightE_4" type="vehicleE_4" route="edgeE_edgeW" depart="4" departLane="1" />

   <vType id="vehicleE_5" length="5.004000" accel="3.171000" decel="5.637000" sigma="0.5" minGap="2.550955" maxSpeed="121.639579" guiShape="passenger" />
   <vehicle id="straightE_5" type="vehicleE_5" route="edgeE_edgeW" depart="5" departLane="1" />

   <vType id="vehicleS_6" length="4.161000" accel="2.800000" decel="6.945000" sigma="0.5" minGap="2.550955" maxSpeed="121.639579" guiShape="passenger" />
   <vehicle id="straightS_6" type="vehicleS_6" route="edgeS_edgeN" depart="6" departLane="3" />

   <vType id="vehicleW_7" length="4.335000" accel="2.606000" decel="6.746000" sigma="0.5" minGap="2.550955" maxSpeed="121.639579" guiShape="passenger" />
   <vehicle id="straightW_7" type="vehicleW_7" route="edgeW_edgeE" depart="7" departLane="2" />

   <vType id="vehicleE_8" length="5.360000" accel="3.103000" decel="3.326000" sigma="0.5" minGap="2.550955" maxSpeed="121.639579" guiShape="passenger" />
   <vehicle id="straightE_8" type="vehicleE_8" route="edgeE_edgeW" depart="7" departLane="1" />

   <vType id="vehicleN_9" length="4.327000" accel="3.036000" decel="6.553000" sigma="0.5" minGap="2.550955" maxSpeed="121.639579" guiShape="passenger" />
   <vehicle id="straightN_9" type="vehicleN_9" route="edgeN_edgeS" depart="8" departLane="5" />

   <vType id="vehicleE_10" length="5.146000" accel="3.354000" decel="3.368000" sigma="0.5" minGap="2.550955" maxSpeed="121.639579" guiShape="passenger" />
   <vehicle id="straightE_10" type="vehicleE_10" route="edgeE_edgeW" depart="8" departLane="1" />

   <vType id="vehicleW_11" length="5.545000" accel="2.972000" decel="6.866000" sigma="0.5" minGap="2.550955" maxSpeed="121.639579" guiShape="passenger" />
   <vehicle id="straightW_11" type="vehicleW_11" route="edgeW_edgeE" depart="9" departLane="1" />

   <vType id="vehicleN_12" length="5.138000" accel="3.247000" decel="4.169000" sigma="0.5" minGap="2.550955" maxSpeed="121.639579" guiShape="passenger" />
   <vehicle id="rightN_12" type="vehicleN_12" route="edgeN_edgeW" depart="10" departLane="1" />

   <vType id="vehicleE_13" length="5.336000" accel="2.706000" decel="5.446000" sigma="0.5" minGap="2.550955" maxSpeed="121.639579" guiShape="passenger" />
   <vehicle id="straightE_13" type="vehicleE_13" route="edgeE_edgeW" depart="11" departLane="1" />

   <vType id="vehicleN_14" length="4.786000" accel="3.259000" decel="4.982000" sigma="0.5" minGap="2.550955" maxSpeed="121.639579" guiShape="passenger" />
   <vehicle id="straightN_14" type="vehicleN_14" route="edgeN_edgeS" depart="12" departLane="2" />

   <vType id="vehicleE_15" length="5.527000" accel="3.291000" decel="3.738000" sigma="0.5" minGap="2.550955" maxSpeed="121.639579" guiShape="passenger" />
   <vehicle id="straightE_15" type="vehicleE_15" route="edgeE_edgeW" depart="12" departLane="1" />

   <vType id="vehicleW_16" length="4.005000" accel="3.238000" decel="5.989000" sigma="0.5" minGap="2.550955" maxSpeed="121.639579" guiShape="passenger" />
   <vehicle id="straightW_16" type="vehicleW_16" route="edgeW_edgeE" depart="13" departLane="1" />

   <vType id="vehicleS_17" length="4.898000" accel="3.473000" decel="6.686000" sigma="0.5" minGap="2.550955" maxSpeed="121.639579" guiShape="passenger" />
   <vehicle id="straightS_17" type="vehicleS_17" route="edgeS_edgeN" depart="14" departLane="3" />

   <vType id="vehicleN_18" length="3.925000" accel="3.000000" decel="5.230000" sigma="0.5" minGap="2.550955" maxSpeed="121.639579" guiShape="passenger" />
   <vehicle id="leftN_18" type="vehicleN_18" route="edgeN_edgeE" depart="16" departLane="5" />

   <vType id="vehicleS_19" length="4.270000" accel="3.405000" decel="6.390000" sigma="0.5" minGap="2.550955" maxSpeed="121.639579" guiShape="passenger" />
   <vehicle id="straightS_19" type="vehicleS_19" route="edgeS_edgeN" depart="16" departLane="2" />

   <vType id="vehicleE_20" length="4.786000" accel="3.195000" decel="6.487000" sigma="0.5" minGap="2.550955" maxSpeed="121.639579" guiShape="passenger" />
   <vehicle id="straightE_20" type="vehicleE_20" route="edgeE_edgeW" depart="16" departLane="2" />

   <vType id="vehicleN_21" length="4.566000" accel="2.471000" decel="5.532000" sigma="0.5" minGap="2.550955" maxSpeed="121.639579" guiShape="passenger" />
   <vehicle id="straightN_21" type="vehicleN_21" route="edgeN_edgeS" depart="17" departLane="4" />

   <vType id="vehicleW_22" length="4.454000" accel="3.354000" decel="3.778000" sigma="0.5" minGap="2.550955" maxSpeed="121.639579" guiShape="passenger" />
   <vehicle id="straightW_22" type="vehicleW_22" route="edgeW_edgeE" depart="18" departLane="1" />

   <vType id="vehicleN_23" length="4.659000" accel="3.369000" decel="3.037000" sigma="0.5" minGap="2.550955" maxSpeed="121.639579" guiShape="passenger" />
   <vehicle id="straightN_23" type="vehicleN_23" route="edgeN_edgeS" depart="19" departLane="2" />

   <vType id="vehicleS_24" length="5.279000" accel="3.478000" decel="6.675000" sigma="0.5" minGap="2.550955" maxSpeed="121.639579" guiShape="passenger" />
   <vehicle id="uturnS_24" type="vehicleS_24" route="edgeS_edgeS" depart="19" departLane="5" />

   <vType id="vehicleE_25" length="4.245000" accel="2.824000" decel="2.965000" sigma="0.5" minGap="2.550955" maxSpeed="121.639579" guiShape="passenger" />
   <vehicle id="straightE_25" type="vehicleE_25" route="edgeE_edgeW" depart="19" departLane="2" />

   <vType id="vehicleN_26" length="5.430000" accel="3.266000" decel="3.934000" sigma="0.5" minGap="2.550955" maxSpeed="121.639579" guiShape="passenger" />
   <vehicle id="straightN_26" type="vehicleN_26" route="edgeN_edgeS" depart="20" departLane="5" />

   <vType id="vehicleS_27" length="5.500000" accel="3.029000" decel="5.033000" sigma="0.5" minGap="2.550955" maxSpeed="121.639579" guiShape="passenger" />
   <vehicle id="straightS_27" type="vehicleS_27" route="edgeS_edgeN" depart="20" departLane="4" />

   <vType id="vehicleW_28" length="4.726000" accel="3.344000" decel="3.388000" sigma="0.5" minGap="2.550955" maxSpeed="121.639579" guiShape="passenger" />
   <vehicle id="straightW_28" type="vehicleW_28" route="edgeW_edgeE" depart="20" departLane="1" />

   <vType id="vehicleN_29" length="5.322000" accel="2.828000" decel="6.740000" sigma="0.5" minGap="2.550955" maxSpeed="121.639579" guiShape="passenger" />
   <vehicle id="leftN_29" type="vehicleN_29" route="edgeN_edgeE" depart="21" departLane="5" />

   <vType id="vehicleW_30" length="4.982000" accel="3.013000" decel="4.067000" sigma="0.5" minGap="2.550955" maxSpeed="121.639579" guiShape="passenger" />
   <vehicle id="leftW_30" type="vehicleW_30" route="edgeW_edgeN" depart="21" departLane="3" />

   <vType id="vehicleE_31" length="4.287000" accel="2.818000" decel="5.586000" sigma="0.5" minGap="2.550955" maxSpeed="121.639579" guiShape="passenger" />
   <vehicle id="straightE_31" type="vehicleE_31" route="edgeE_edgeW" depart="21" departLane="2" />

   <vType id="vehicleE_32" length="4.825000" accel="2.478000" decel="5.013000" sigma="0.5" minGap="2.550955" maxSpeed="121.639579" guiShape="passenger" />
   <vehicle id="straightE_32" type="vehicleE_32" route="edgeE_edgeW" depart="22" departLane="2" />

   <vType id="vehicleN_33" length="4.004000" accel="2.644000" decel="3.933000" sigma="0.5" minGap="2.550955" maxSpeed="121.639579" guiShape="passenger" />
   <vehicle id="straightN_33" type="vehicleN_33" route="edgeN_edgeS" depart="23" departLane="5" />

   <vType id="vehicleW_34" length="4.387000" accel="3.126000" decel="6.729000" sigma="0.5" minGap="2.550955" maxSpeed="121.639579" guiShape="passenger" />
   <vehicle id="straightW_34" type="vehicleW_34" route="edgeW_edgeE" depart="24" departLane="1" />

   <vType id="vehicleE_35" length="5.124000" accel="2.542000" decel="3.919000" sigma="0.5" minGap="2.550955" maxSpeed="121.639579" guiShape="passenger" />
   <vehicle id="straightE_35" type="vehicleE_35" route="edgeE_edgeW" depart="24" departLane="1" />

   <vType id="vehicleE_36" length="5.394000" accel="3.337000" decel="3.109000" sigma="0.5" minGap="2.550955" maxSpeed="121.639579" guiShape="passenger" />
   <vehicle id="straightE_36" type="vehicleE_36" route="edgeE_edgeW" depart="25" departLane="2" />

   <vType id="vehicleS_37" length="4.107000" accel="3.490000" decel="3.406000" sigma="0.5" minGap="2.550955" maxSpeed="121.639579" guiShape="passenger" />
   <vehicle id="straightS_37" type="vehicleS_37" route="edgeS_edgeN" depart="26" departLane="5" />

   <vType id="vehicleN_38" length="5.357000" accel="3.403000" decel="5.047000" sigma="0.5" minGap="2.550955" maxSpeed="121.639579" guiShape="passenger" />
   <vehicle id="leftN_38" type="vehicleN_38" route="edgeN_edgeE" depart="27" departLane="5" />

   <vType id="vehicleW_39" length="4.402000" accel="3.397000" decel="6.118000" sigma="0.5" minGap="2.550955" maxSpeed="121.639579" guiShape="passenger" />
   <vehicle id="leftW_39" type="vehicleW_39" route="edgeW_edgeN" depart="27" departLane="3" />

   <vType id="vehicleN_40" length="4.061000" accel="3.261000" decel="6.494000" sigma="0.5" minGap="2.550955" maxSpeed="121.639579" guiShape="passenger" />
   <vehicle id="straightN_40" type="vehicleN_40" route="edgeN_edgeS" depart="28" departLane="5" />

   <vType id="vehicleN_41" length="5.219000" accel="2.567000" decel="4.477000" sigma="0.5" minGap="2.550955" maxSpeed="121.639579" guiShape="passenger" />
   <vehicle id="straightN_41" type="vehicleN_41" route="edgeN_edgeS" depart="29" departLane="3" />

   <vType id="vehicleW_42" length="5.223000" accel="3.357000" decel="6.181000" sigma="0.5" minGap="2.550955" maxSpeed="121.639579" guiShape="passenger" />
   <vehicle id="straightW_42" type="vehicleW_42" route="edgeW_edgeE" depart="29" departLane="2" />

   <vType id="vehicleE_43" length="4.526000" accel="2.407000" decel="4.727000" sigma="0.5" minGap="2.550955" maxSpeed="121.639579" guiShape="passenger" />
   <vehicle id="straightE_43" type="vehicleE_43" route="edgeE_edgeW" depart="29" departLane="1" />

   <vType id="vehicleW_44" length="4.268000" accel="2.390000" decel="3.540000" sigma="0.5" minGap="2.550955" maxSpeed="121.639579" guiShape="passenger" />
   <vehicle id="straightW_44" type="vehicleW_44" route="edgeW_edgeE" depart="30" departLane="2" />

   <vType id="vehicleE_45" length="5.175000" accel="2.767000" decel="4.892000" sigma="0.5" minGap="2.550955" maxSpeed="121.639579" guiShape="passenger" />
   <vehicle id="leftE_45" type="vehicleE_45" route="edgeE_edgeS" depart="30" departLane="3" />

   <vType id="vehicleS_46" length="4.187000" accel="3.471000" decel="3.850000" sigma="0.5" minGap="2.550955" maxSpeed="121.639579" guiShape="passenger" />
   <vehicle id="uturnS_46" type="vehicleS_46" route="edgeS_edgeS" depart="31" departLane="5" />

   <vType id="vehicleW_47" length="5.101000" accel="2.724000" decel="5.306000" sigma="0.5" minGap="2.550955" maxSpeed="121.639579" guiShape="passenger" />
   <vehicle id="straightW_47" type="vehicleW_47" route="edgeW_edgeE" depart="31" departLane="1" />

   <vType id="vehicleE_48" length="4.785000" accel="3.191000" decel="5.887000" sigma="0.5" minGap="2.550955" maxSpeed="121.639579" guiShape="passenger" />
   <vehicle id="straightE_48" type="vehicleE_48" route="edgeE_edgeW" depart="32" departLane="1" />

   <vType id="vehicleS_49" length="4.439000" accel="2.724000" decel="6.340000" sigma="0.5" minGap="2.550955" maxSpeed="121.639579" guiShape="passenger" />
   <vehicle id="straightS_49" type="vehicleS_49" route="edgeS_edgeN" depart="33" departLane="4" />

   <vType id="vehicleE_50" length="4.520000" accel="3.224000" decel="3.459000" sigma="0.5" minGap="2.550955" maxSpeed="121.639579" guiShape="passenger" />
   <vehicle id="straightE_50" type="vehicleE_50" route="edgeE_edgeW" depart="34" departLane="2" />

   <vType id="vehicleW_51" length="5.196000" accel="3.061000" decel="4.092000" sigma="0.5" minGap="2.550955" maxSpeed="121.639579" guiShape="passenger" />
   <vehicle id="straightW_51" type="vehicleW_51" route="edgeW_edgeE" depart="35" departLane="2" />

   <vType id="vehicleN_52" length="5.387000" accel="3.279000" decel="3.440000" sigma="0.5" minGap="2.550955" maxSpeed="121.639579" guiShape="passenger" />
   <vehicle id="straightN_52" type="vehicleN_52" route="edgeN_edgeS" depart="36" departLane="2" />

   <vType id="vehicleN_53" length="4.280000" accel="2.720000" decel="6.163000" sigma="0.5" minGap="2.550955" maxSpeed="121.639579" guiShape="passenger" />
   <vehicle id="uturnN_53" type="vehicleN_53" route="edgeN_edgeN" depart="37" departLane="5" />

   <vType id="vehicleS_54" length="5.525000" accel="3.066000" decel="6.000000" sigma="0.5" minGap="2.550955" maxSpeed="121.639579" guiShape="passenger" />
   <vehicle id="leftS_54" type="vehicleS_54" route="edgeS_edgeW" depart="37" departLane="5" />

   <vType id="vehicleN_55" length="4.711000" accel="2.644000" decel="5.519000" sigma="0.5" minGap="2.550955" maxSpeed="121.639579" guiShape="passenger" />
   <vehicle id="straightN_55" type="vehicleN_55" route="edgeN_edgeS" depart="38" departLane="2" />

   <vType id="vehicleE_56" length="4.662000" accel="2.974000" decel="5.104000" sigma="0.5" minGap="2.550955" maxSpeed="121.639579" guiShape="passenger" />
   <vehicle id="leftE_56" type="vehicleE_56" route="edgeE_edgeS" depart="40" departLane="3" />

   <vType id="vehicleW_57" length="4.950000" accel="3.244000" decel="4.943000" sigma="0.5" minGap="2.550955" maxSpeed="121.639579" guiShape="passenger" />
   <vehicle id="straightW_57" type="vehicleW_57" route="edgeW_edgeE" depart="43" departLane="1" />

   <vType id="vehicleE_58" length="4.365000" accel="2.676000" decel="4.082000" sigma="0.5" minGap="2.550955" maxSpeed="121.639579" guiShape="passenger" />
   <vehicle id="leftE_58" type="vehicleE_58" route="edgeE_edgeS" depart="43" departLane="3" />

   <vType id="vehicleN_59" length="5.043000" accel="3.176000" decel="2.989000" sigma="0.5" minGap="2.550955" maxSpeed="121.639579" guiShape="passenger" />
   <vehicle id="straightN_59" type="vehicleN_59" route="edgeN_edgeS" depart="44" departLane="5" />

   <vType id="vehicleE_60" length="4.537000" accel="3.249000" decel="6.759000" sigma="0.5" minGap="2.550955" maxSpeed="121.639579" guiShape="passenger" />
   <vehicle id="straightE_60" type="vehicleE_60" route="edgeE_edgeW" depart="44" departLane="1" />

   <vType id="vehicleW_61" length="4.474000" accel="3.230000" decel="6.363000" sigma="0.5" minGap="2.550955" maxSpeed="121.639579" guiShape="passenger" />
   <vehicle id="leftW_61" type="vehicleW_61" route="edgeW_edgeN" depart="45" departLane="3" />

   <vType id="vehicleN_62" length="4.536000" accel="3.133000" decel="6.127000" sigma="0.5" minGap="2.550955" maxSpeed="121.639579" guiShape="passenger" />
   <vehicle id="straightN_62" type="vehicleN_62" route="edgeN_edgeS" depart="47" departLane="3" />

   <vType id="vehicleN_63" length="5.330000" accel="2.572000" decel="3.827000" sigma="0.5" minGap="2.550955" maxSpeed="121.639579" guiShape="passenger" />
   <vehicle id="straightN_63" type="vehicleN_63" route="edgeN_edgeS" depart="49" departLane="4" />

   <vType id="vehicleW_64" length="4.520000" accel="3.228000" decel="6.271000" sigma="0.5" minGap="2.550955" maxSpeed="121.639579" guiShape="passenger" />
   <vehicle id="straightW_64" type="vehicleW_64" route="edgeW_edgeE" depart="49" departLane="2" />

   <vType id="vehicleW_65" length="4.263000" accel="2.442000" decel="6.807000" sigma="0.5" minGap="2.550955" maxSpeed="121.639579" guiShape="passenger" />
   <vehicle id="straightW_65" type="vehicleW_65" route="edgeW_edgeE" depart="50" departLane="1" />

   <vType id="vehicleS_66" length="4.143000" accel="2.508000" decel="5.577000" sigma="0.5" minGap="2.550955" maxSpeed="121.639579" guiShape="passenger" />
   <vehicle id="leftS_66" type="vehicleS_66" route="edgeS_edgeW" depart="51" departLane="5" />

   <vType id="vehicleE_67" length="4.897000" accel="3.472000" decel="5.786000" sigma="0.5" minGap="2.550955" maxSpeed="121.639579" guiShape="passenger" />
   <vehicle id="straightE_67" type="vehicleE_67" route="edgeE_edgeW" depart="51" departLane="1" />

   <vType id="vehicleS_68" length="4.408000" accel="3.142000" decel="6.811000" sigma="0.5" minGap="2.550955" maxSpeed="121.639579" guiShape="passenger" />
   <vehicle id="leftS_68" type="vehicleS_68" route="edgeS_edgeW" depart="52" departLane="5" />

   <vType id="vehicleE_69" length="5.270000" accel="2.642000" decel="5.695000" sigma="0.5" minGap="2.550955" maxSpeed="121.639579" guiShape="passenger" />
   <vehicle id="straightE_69" type="vehicleE_69" route="edgeE_edgeW" depart="52" departLane="2" />

   <vType id="vehicleW_70" length="5.190000" accel="2.762000" decel="4.546000" sigma="0.5" minGap="2.550955" maxSpeed="121.639579" guiShape="passenger" />
   <vehicle id="uturnW_70" type="vehicleW_70" route="edgeW_edgeW" depart="53" departLane="3" />

   <vType id="vehicleN_71" length="4.946000" accel="3.317000" decel="5.738000" sigma="0.5" minGap="2.550955" maxSpeed="121.639579" guiShape="passenger" />
   <vehicle id="uturnN_71" type="vehicleN_71" route="edgeN_edgeN" depart="55" departLane="5" />

   <vType id="vehicleN_72" length="4.784000" accel="2.919000" decel="4.577000" sigma="0.5" minGap="2.550955" maxSpeed="121.639579" guiShape="passenger" />
   <vehicle id="straightN_72" type="vehicleN_72" route="edgeN_edgeS" depart="56" departLane="4" />

   <vType id="vehicleW_73" length="4.353000" accel="2.882000" decel="5.923000" sigma="0.5" minGap="2.550955" maxSpeed="121.639579" guiShape="passenger" />
   <vehicle id="straightW_73" type="vehicleW_73" route="edgeW_edgeE" depart="56" departLane="2" />

   <vType id="vehicleE_74" length="4.430000" accel="2.924000" decel="4.232000" sigma="0.5" minGap="2.550955" maxSpeed="121.639579" guiShape="passenger" />
   <vehicle id="straightE_74" type="vehicleE_74" route="edgeE_edgeW" depart="56" departLane="2" />

   <vType id="vehicleE_75" length="5.465000" accel="2.461000" decel="5.793000" sigma="0.5" minGap="2.550955" maxSpeed="121.639579" guiShape="passenger" />
   <vehicle id="leftE_75" type="vehicleE_75" route="edgeE_edgeS" depart="57" departLane="3" />

   <vType id="vehicleS_76" length="4.562000" accel="2.643000" decel="5.553000" sigma="0.5" minGap="2.550955" maxSpeed="121.639579" guiShape="passenger" />
   <vehicle id="straightS_76" type="vehicleS_76" route="edgeS_edgeN" depart="59" departLane="4" />

   <vType id="vehicleW_77" length="4.340000" accel="2.652000" decel="3.231000" sigma="0.5" minGap="2.550955" maxSpeed="121.639579" guiShape="passenger" />
   <vehicle id="straightW_77" type="vehicleW_77" route="edgeW_edgeE" depart="60" departLane="1" />

   <vType id="vehicleE_78" length="5.470000" accel="3.157000" decel="3.534000" sigma="0.5" minGap="2.550955" maxSpeed="121.639579" guiShape="passenger" />
   <vehicle id="straightE_78" type="vehicleE_78" route="edgeE_edgeW" depart="60" departLane="2" />

   <vType id="vehicleN_79" length="5.153000" accel="3.050000" decel="6.906000" sigma="0.5" minGap="2.550955" maxSpeed="121.639579" guiShape="passenger" />
   <vehicle id="straightN_79" type="vehicleN_79" route="edgeN_edgeS" depart="61" departLane="3" />

   <vType id="vehicleW_80" length="5.066000" accel="2.508000" decel="2.909000" sigma="0.5" minGap="2.550955" maxSpeed="121.639579" guiShape="passenger" />
   <vehicle id="straightW_80" type="vehicleW_80" route="edgeW_edgeE" depart="61" departLane="1" />

   <vType id="vehicleS_81" length="4.706000" accel="3.367000" decel="5.169000" sigma="0.5" minGap="2.550955" maxSpeed="121.639579" guiShape="passenger" />
   <vehicle id="rightS_81" type="vehicleS_81" route="edgeS_edgeE" depart="62" departLane="1" />

   <vType id="vehicleE_82" length="4.309000" accel="3.355000" decel="3.203000" sigma="0.5" minGap="2.550955" maxSpeed="121.639579" guiShape="passenger" />
   <vehicle id="straightE_82" type="vehicleE_82" route="edgeE_edgeW" depart="62" departLane="1" />

   <vType id="vehicleS_83" length="3.979000" accel="2.535000" decel="5.121000" sigma="0.5" minGap="2.550955" maxSpeed="121.639579" guiShape="passenger" />
   <vehicle id="straightS_83" type="vehicleS_83" route="edgeS_edgeN" depart="63" departLane="4" />

   <vType id="vehicleW_84" length="4.817000" accel="2.842000" decel="5.263000" sigma="0.5" minGap="2.550955" maxSpeed="121.639579" guiShape="passenger" />
   <vehicle id="straightW_84" type="vehicleW_84" route="edgeW_edgeE" depart="63" departLane="1" />

   <vType id="vehicleW_85" length="4.603000" accel="3.017000" decel="2.972000" sigma="0.5" minGap="2.550955" maxSpeed="121.639579" guiShape="passenger" />
   <vehicle id="straightW_85" type="vehicleW_85" route="edgeW_edgeE" depart="64" departLane="1" />

   <vType id="vehicleN_86" length="4.987000" accel="2.544000" decel="3.458000" sigma="0.5" minGap="2.550955" maxSpeed="121.639579" guiShape="passenger" />
   <vehicle id="straightN_86" type="vehicleN_86" route="edgeN_edgeS" depart="65" departLane="2" />

   <vType id="vehicleS_87" length="5.035000" accel="2.904000" decel="2.854000" sigma="0.5" minGap="2.550955" maxSpeed="121.639579" guiShape="passenger" />
   <vehicle id="straightS_87" type="vehicleS_87" route="edgeS_edgeN" depart="65" departLane="4" />

   <vType id="vehicleN_88" length="4.401000" accel="3.225000" decel="5.148000" sigma="0.5" minGap="2.550955" maxSpeed="121.639579" guiShape="passenger" />
   <vehicle id="straightN_88" type="vehicleN_88" route="edgeN_edgeS" depart="69" departLane="4" />

   <vType id="vehicleE_89" length="4.342000" accel="2.984000" decel="4.586000" sigma="0.5" minGap="2.550955" maxSpeed="121.639579" guiShape="passenger" />
   <vehicle id="straightE_89" type="vehicleE_89" route="edgeE_edgeW" depart="69" departLane="1" />

   <vType id="vehicleE_90" length="5.010000" accel="3.353000" decel="5.225000" sigma="0.5" minGap="2.550955" maxSpeed="121.639579" guiShape="passenger" />
   <vehicle id="straightE_90" type="vehicleE_90" route="edgeE_edgeW" depart="70" departLane="1" />

   <vType id="vehicleW_91" length="5.147000" accel="2.904000" decel="5.500000" sigma="0.5" minGap="2.550955" maxSpeed="121.639579" guiShape="passenger" />
   <vehicle id="leftW_91" type="vehicleW_91" route="edgeW_edgeN" depart="71" departLane="3" />

   <vType id="vehicleE_92" length="4.945000" accel="2.929000" decel="3.105000" sigma="0.5" minGap="2.550955" maxSpeed="121.639579" guiShape="passenger" />
   <vehicle id="straightE_92" type="vehicleE_92" route="edgeE_edgeW" depart="71" departLane="2" />

   <vType id="vehicleW_93" length="4.574000" accel="2.933000" decel="5.547000" sigma="0.5" minGap="2.550955" maxSpeed="121.639579" guiShape="passenger" />
   <vehicle id="straightW_93" type="vehicleW_93" route="edgeW_edgeE" depart="72" departLane="2" />

   <vType id="vehicleW_94" length="5.502000" accel="2.828000" decel="4.915000" sigma="0.5" minGap="2.550955" maxSpeed="121.639579" guiShape="passenger" />
   <vehicle id="straightW_94" type="vehicleW_94" route="edgeW_edgeE" depart="73" departLane="1" />

   <vType id="vehicleW_95" length="5.147000" accel="3.083000" decel="5.964000" sigma="0.5" minGap="2.550955" maxSpeed="121.639579" guiShape="passenger" />
   <vehicle id="straightW_95" type="vehicleW_95" route="edgeW_edgeE" depart="74" departLane="1" />

   <vType id="vehicleE_96" length="4.369000" accel="3.377000" decel="4.787000" sigma="0.5" minGap="2.550955" maxSpeed="121.639579" guiShape="passenger" />
   <vehicle id="leftE_96" type="vehicleE_96" route="edgeE_edgeS" depart="74" departLane="3" />

   <vType id="vehicleW_97" length="4.805000" accel="2.998000" decel="3.113000" sigma="0.5" minGap="2.550955" maxSpeed="121.639579" guiShape="passenger" />
   <vehicle id="straightW_97" type="vehicleW_97" route="edgeW_edgeE" depart="75" departLane="1" />

   <vType id="vehicleN_98" length="4.718000" accel="3.188000" decel="4.890000" sigma="0.5" minGap="2.550955" maxSpeed="121.639579" guiShape="passenger" />
   <vehicle id="rightN_98" type="vehicleN_98" route="edgeN_edgeW" depart="76" departLane="1" />

   <vType id="vehicleS_99" length="4.886000" accel="3.222000" decel="3.298000" sigma="0.5" minGap="2.550955" maxSpeed="121.639579" guiShape="passenger" />
   <vehicle id="straightS_99" type="vehicleS_99" route="edgeS_edgeN" depart="77" departLane="2" />

   <vType id="vehicleW_100" length="4.579000" accel="3.438000" decel="4.885000" sigma="0.5" minGap="2.550955" maxSpeed="121.639579" guiShape="passenger" />
   <vehicle id="straightW_100" type="vehicleW_100" route="edgeW_edgeE" depart="77" departLane="1" />

   <vType id="vehicleE_101" length="4.865000" accel="3.512000" decel="4.808000" sigma="0.5" minGap="2.550955" maxSpeed="121.639579" guiShape="passenger" />
   <vehicle id="straightE_101" type="vehicleE_101" route="edgeE_edgeW" depart="77" departLane="1" />

   <vType id="vehicleW_102" length="4.517000" accel="3.436000" decel="6.432000" sigma="0.5" minGap="2.550955" maxSpeed="121.639579" guiShape="passenger" />
   <vehicle id="straightW_102" type="vehicleW_102" route="edgeW_edgeE" depart="78" departLane="1" />

   <vType id="vehicleN_103" length="3.962000" accel="3.220000" decel="5.730000" sigma="0.5" minGap="2.550955" maxSpeed="121.639579" guiShape="passenger" />
   <vehicle id="straightN_103" type="vehicleN_103" route="edgeN_edgeS" depart="79" departLane="5" />

   <vType id="vehicleW_104" length="4.871000" accel="3.364000" decel="6.452000" sigma="0.5" minGap="2.550955" maxSpeed="121.639579" guiShape="passenger" />
   <vehicle id="straightW_104" type="vehicleW_104" route="edgeW_edgeE" depart="80" departLane="2" />

   <vType id="vehicleE_105" length="3.915000" accel="2.529000" decel="6.438000" sigma="0.5" minGap="2.550955" maxSpeed="121.639579" guiShape="passenger" />
   <vehicle id="straightE_105" type="vehicleE_105" route="edgeE_edgeW" depart="80" departLane="1" />

   <vType id="vehicleN_106" length="4.330000" accel="3.080000" decel="4.414000" sigma="0.5" minGap="2.550955" maxSpeed="121.639579" guiShape="passenger" />
   <vehicle id="straightN_106" type="vehicleN_106" route="edgeN_edgeS" depart="81" departLane="2" />

   <vType id="vehicleS_107" length="4.939000" accel="3.423000" decel="6.979000" sigma="0.5" minGap="2.550955" maxSpeed="121.639579" guiShape="passenger" />
   <vehicle id="leftS_107" type="vehicleS_107" route="edgeS_edgeW" depart="83" departLane="5" />

   <vType id="vehicleE_108" length="5.340000" accel="2.873000" decel="5.682000" sigma="0.5" minGap="2.550955" maxSpeed="121.639579" guiShape="passenger" />
   <vehicle id="straightE_108" type="vehicleE_108" route="edgeE_edgeW" depart="83" departLane="1" />
