<routes>
   <personFlow id="pRegN" begin="0" end="3000" personsPerHour="779.655931">
        <walk edges="edgeN_O edgeS_I" speed="1.989650"/>
    </personFlow>
   <personFlow id="pRegS" begin="0" end="3000" personsPerHour="162.884258">
        <walk edges="edgeS_O edgeN_I" speed="1.514480"/>
    </personFlow>
   <personFlow id="pRegW" begin="0" end="3000" personsPerHour="732.738263">
        <walk edges="edgeW_O edgeE_I" speed="1.419409"/>
    </personFlow>
   <personFlow id="pRegE" begin="0" end="3000" personsPerHour="551.685782">
        <walk edges="edgeE_O edgeW_I" speed="1.759449"/>
    </personFlow>
   <personFlow id="pOppN" begin="0" end="3000" personsPerHour="638.710414" departPos="500.000000">
        <walk edges="edgeN_I edgeS_O" speed="1.618442"/>
    </personFlow>
   <personFlow id="pOppS" begin="0" end="3000" personsPerHour="199.054985" departPos="400.000000">
        <walk edges="edgeS_I edgeN_O" speed="2.168655"/>
    </personFlow>
   <personFlow id="pOppW" begin="0" end="3000" personsPerHour="372.940400" departPos="500.000000">
        <walk edges="edgeW_I edgeE_O" speed="1.394426"/>
    </personFlow>
   <personFlow id="pOppE" begin="0" end="3000" personsPerHour="674.523813" departPos="700.000000">
        <walk edges="edgeE_I edgeW_O" speed="1.195007"/>
    </personFlow>

    <route id="edgeN_edgeN" edges="edgeN_O edgeN_I" />
    <route id="edgeN_edgeS" edges="edgeN_O edgeS_I" />
    <route id="edgeN_edgeW" edges="edgeN_O edgeW_I" />
    <route id="edgeN_edgeE" edges="edgeN_O edgeE_I" />
    <route id="edgeS_edgeN" edges="edgeS_O edgeN_I" />
    <route id="edgeS_edgeS" edges="edgeS_O edgeS_I" />
    <route id="edgeS_edgeW" edges="edgeS_O edgeW_I" />
    <route id="edgeS_edgeE" edges="edgeS_O edgeE_I" />
    <route id="edgeW_edgeN" edges="edgeW_O edgeN_I" />
    <route id="edgeW_edgeS" edges="edgeW_O edgeS_I" />
    <route id="edgeW_edgeW" edges="edgeW_O edgeW_I" />
    <route id="edgeW_edgeE" edges="edgeW_O edgeE_I" />
    <route id="edgeE_edgeN" edges="edgeE_O edgeN_I" />
    <route id="edgeE_edgeS" edges="edgeE_O edgeS_I" />
    <route id="edgeE_edgeW" edges="edgeE_O edgeW_I" />
    <route id="edgeE_edgeE" edges="edgeE_O edgeE_I" />
    
   <vType id="vehicleS_0" length="4.211000" accel="3.471000" decel="5.723000" sigma="0.5" minGap="2.444815" maxSpeed="139.983109" guiShape="passenger" />
   <vehicle id="straightS_0" type="vehicleS_0" route="edgeS_edgeN" depart="0" departLane="2" />

   <vType id="vehicleE_1" length="4.229000" accel="3.203000" decel="5.296000" sigma="0.5" minGap="2.444815" maxSpeed="139.983109" guiShape="passenger" />
   <vehicle id="leftE_1" type="vehicleE_1" route="edgeE_edgeS" depart="0" departLane="3" />

   <vType id="vehicleN_2" length="5.276000" accel="2.019000" decel="6.202000" sigma="0.5" minGap="2.444815" maxSpeed="139.983109" guiShape="passenger" />
   <vehicle id="straightN_2" type="vehicleN_2" route="edgeN_edgeS" depart="1" departLane="5" />

   <vType id="vehicleW_3" length="4.417000" accel="2.191000" decel="3.575000" sigma="0.5" minGap="2.444815" maxSpeed="139.983109" guiShape="passenger" />
   <vehicle id="rightW_3" type="vehicleW_3" route="edgeW_edgeS" depart="1" departLane="1" />

   <vType id="vehicleN_4" length="5.312000" accel="3.236000" decel="6.409000" sigma="0.5" minGap="2.444815" maxSpeed="139.983109" guiShape="passenger" />
   <vehicle id="straightN_4" type="vehicleN_4" route="edgeN_edgeS" depart="3" departLane="3" />

   <vType id="vehicleW_5" length="4.332000" accel="2.165000" decel="4.079000" sigma="0.5" minGap="2.444815" maxSpeed="139.983109" guiShape="passenger" />
   <vehicle id="straightW_5" type="vehicleW_5" route="edgeW_edgeE" depart="3" departLane="2" />

   <vType id="vehicleN_6" length="4.101000" accel="2.713000" decel="5.699000" sigma="0.5" minGap="2.444815" maxSpeed="139.983109" guiShape="passenger" />
   <vehicle id="rightN_6" type="vehicleN_6" route="edgeN_edgeW" depart="4" departLane="1" />

   <vType id="vehicleW_7" length="4.103000" accel="2.761000" decel="6.882000" sigma="0.5" minGap="2.444815" maxSpeed="139.983109" guiShape="passenger" />
   <vehicle id="straightW_7" type="vehicleW_7" route="edgeW_edgeE" depart="4" departLane="2" />

   <vType id="vehicleW_8" length="4.379000" accel="2.539000" decel="3.998000" sigma="0.5" minGap="2.444815" maxSpeed="139.983109" guiShape="passenger" />
   <vehicle id="leftW_8" type="vehicleW_8" route="edgeW_edgeN" depart="5" departLane="3" />

   <vType id="vehicleE_9" length="5.412000" accel="3.284000" decel="3.746000" sigma="0.5" minGap="2.444815" maxSpeed="139.983109" guiShape="passenger" />
   <vehicle id="straightE_9" type="vehicleE_9" route="edgeE_edgeW" depart="5" departLane="2" />

   <vType id="vehicleN_10" length="4.283000" accel="3.169000" decel="6.542000" sigma="0.5" minGap="2.444815" maxSpeed="139.983109" guiShape="passenger" />
   <vehicle id="straightN_10" type="vehicleN_10" route="edgeN_edgeS" depart="6" departLane="5" />

   <vType id="vehicleE_11" length="5.178000" accel="3.718000" decel="3.783000" sigma="0.5" minGap="2.444815" maxSpeed="139.983109" guiShape="passenger" />
   <vehicle id="straightE_11" type="vehicleE_11" route="edgeE_edgeW" depart="6" departLane="2" />

   <vType id="vehicleW_12" length="5.615000" accel="3.058000" decel="6.814000" sigma="0.5" minGap="2.444815" maxSpeed="139.983109" guiShape="passenger" />
   <vehicle id="straightW_12" type="vehicleW_12" route="edgeW_edgeE" depart="7" departLane="2" />

   <vType id="vehicleN_13" length="5.169000" accel="3.534000" decel="4.477000" sigma="0.5" minGap="2.444815" maxSpeed="139.983109" guiShape="passenger" />
   <vehicle id="rightN_13" type="vehicleN_13" route="edgeN_edgeW" depart="8" departLane="2" />

   <vType id="vehicleE_14" length="5.387000" accel="2.600000" decel="5.583000" sigma="0.5" minGap="2.444815" maxSpeed="139.983109" guiShape="passenger" />
   <vehicle id="rightE_14" type="vehicleE_14" route="edgeE_edgeN" depart="9" departLane="1" />

   <vType id="vehicleN_15" length="4.785000" accel="3.554000" decel="5.181000" sigma="0.5" minGap="2.444815" maxSpeed="139.983109" guiShape="passenger" />
   <vehicle id="rightN_15" type="vehicleN_15" route="edgeN_edgeW" depart="10" departLane="1" />

   <vType id="vehicleE_16" length="5.595000" accel="3.610000" decel="4.104000" sigma="0.5" minGap="2.444815" maxSpeed="139.983109" guiShape="passenger" />
   <vehicle id="straightE_16" type="vehicleE_16" route="edgeE_edgeW" depart="10" departLane="2" />

   <vType id="vehicleW_17" length="3.932000" accel="3.519000" decel="6.053000" sigma="0.5" minGap="2.444815" maxSpeed="139.983109" guiShape="passenger" />
   <vehicle id="straightW_17" type="vehicleW_17" route="edgeW_edgeE" depart="11" departLane="2" />

   <vType id="vehicleS_18" length="4.907000" accel="3.924000" decel="6.657000" sigma="0.5" minGap="2.444815" maxSpeed="139.983109" guiShape="passenger" />
   <vehicle id="straightS_18" type="vehicleS_18" route="edgeS_edgeN" depart="12" departLane="3" />

   <vType id="vehicleN_19" length="3.844000" accel="3.108000" decel="5.396000" sigma="0.5" minGap="2.444815" maxSpeed="139.983109" guiShape="passenger" />
   <vehicle id="leftN_19" type="vehicleN_19" route="edgeN_edgeE" depart="14" departLane="5" />

   <vType id="vehicleS_20" length="4.222000" accel="3.806000" decel="6.401000" sigma="0.5" minGap="2.444815" maxSpeed="139.983109" guiShape="passenger" />
   <vehicle id="straightS_20" type="vehicleS_20" route="edgeS_edgeN" depart="14" departLane="2" />

   <vType id="vehicleE_21" length="4.785000" accel="3.444000" decel="6.485000" sigma="0.5" minGap="2.444815" maxSpeed="139.983109" guiShape="passenger" />
   <vehicle id="straightE_21" type="vehicleE_21" route="edgeE_edgeW" depart="14" departLane="2" />

   <vType id="vehicleN_22" length="4.545000" accel="2.194000" decel="5.658000" sigma="0.5" minGap="2.444815" maxSpeed="139.983109" guiShape="passenger" />
   <vehicle id="straightN_22" type="vehicleN_22" route="edgeN_edgeS" depart="15" departLane="4" />

   <vType id="vehicleW_23" length="4.422000" accel="3.719000" decel="4.138000" sigma="0.5" minGap="2.444815" maxSpeed="139.983109" guiShape="passenger" />
   <vehicle id="straightW_23" type="vehicleW_23" route="edgeW_edgeE" depart="16" departLane="2" />

   <vType id="vehicleN_24" length="4.646000" accel="3.745000" decel="3.496000" sigma="0.5" minGap="2.444815" maxSpeed="139.983109" guiShape="passenger" />
   <vehicle id="leftN_24" type="vehicleN_24" route="edgeN_edgeE" depart="17" departLane="5" />

   <vType id="vehicleS_25" length="5.324000" accel="3.933000" decel="6.648000" sigma="0.5" minGap="2.444815" maxSpeed="139.983109" guiShape="passenger" />
   <vehicle id="uturnS_25" type="vehicleS_25" route="edgeS_edgeS" depart="17" departLane="6" />

   <vType id="vehicleE_26" length="4.194000" accel="2.804000" decel="3.434000" sigma="0.5" minGap="2.444815" maxSpeed="139.983109" guiShape="passenger" />
   <vehicle id="straightE_26" type="vehicleE_26" route="edgeE_edgeW" depart="17" departLane="2" />

   <vType id="vehicleN_27" length="5.488000" accel="3.567000" decel="4.273000" sigma="0.5" minGap="2.444815" maxSpeed="139.983109" guiShape="passenger" />
   <vehicle id="straightN_27" type="vehicleN_27" route="edgeN_edgeS" depart="18" departLane="5" />

   <vType id="vehicleS_28" length="5.565000" accel="3.158000" decel="5.225000" sigma="0.5" minGap="2.444815" maxSpeed="139.983109" guiShape="passenger" />
   <vehicle id="straightS_28" type="vehicleS_28" route="edgeS_edgeN" depart="18" departLane="4" />

   <vType id="vehicleW_29" length="4.719000" accel="3.702000" decel="3.800000" sigma="0.5" minGap="2.444815" maxSpeed="139.983109" guiShape="passenger" />
   <vehicle id="straightW_29" type="vehicleW_29" route="edgeW_edgeE" depart="18" departLane="2" />

   <vType id="vehicleN_30" length="5.371000" accel="2.809000" decel="6.704000" sigma="0.5" minGap="2.444815" maxSpeed="139.983109" guiShape="passenger" />
   <vehicle id="leftN_30" type="vehicleN_30" route="edgeN_edgeE" depart="19" departLane="5" />

   <vType id="vehicleW_31" length="5.000000" accel="3.130000" decel="4.389000" sigma="0.5" minGap="2.444815" maxSpeed="139.983109" guiShape="passenger" />
   <vehicle id="leftW_31" type="vehicleW_31" route="edgeW_edgeN" depart="19" departLane="3" />

   <vType id="vehicleE_32" length="4.240000" accel="2.793000" decel="5.705000" sigma="0.5" minGap="2.444815" maxSpeed="139.983109" guiShape="passenger" />
   <vehicle id="straightE_32" type="vehicleE_32" route="edgeE_edgeW" depart="19" departLane="2" />

   <vType id="vehicleN_33" length="5.505000" accel="2.025000" decel="5.518000" sigma="0.5" minGap="2.444815" maxSpeed="139.983109" guiShape="passenger" />
   <vehicle id="uturnN_33" type="vehicleN_33" route="edgeN_edgeN" depart="20" departLane="6" />

   <vType id="vehicleW_34" length="4.725000" accel="2.270000" decel="4.510000" sigma="0.5" minGap="2.444815" maxSpeed="139.983109" guiShape="passenger" />
   <vehicle id="straightW_34" type="vehicleW_34" route="edgeW_edgeE" depart="20" departLane="2" />

   <vType id="vehicleN_35" length="5.320000" accel="3.405000" decel="5.482000" sigma="0.5" minGap="2.444815" maxSpeed="139.983109" guiShape="passenger" />
   <vehicle id="leftN_35" type="vehicleN_35" route="edgeN_edgeE" depart="21" departLane="5" />

   <vType id="vehicleN_36" length="4.286000" accel="3.775000" decel="5.967000" sigma="0.5" minGap="2.444815" maxSpeed="139.983109" guiShape="passenger" />
   <vehicle id="rightN_36" type="vehicleN_36" route="edgeN_edgeW" depart="22" departLane="1" />

   <vType id="vehicleN_37" length="4.285000" accel="2.978000" decel="6.570000" sigma="0.5" minGap="2.444815" maxSpeed="139.983109" guiShape="passenger" />
   <vehicle id="straightN_37" type="vehicleN_37" route="edgeN_edgeS" depart="23" departLane="2" />

   <vType id="vehicleS_38" length="4.308000" accel="2.013000" decel="6.073000" sigma="0.5" minGap="2.444815" maxSpeed="139.983109" guiShape="passenger" />
   <vehicle id="straightS_38" type="vehicleS_38" route="edgeS_edgeN" depart="23" departLane="4" />

   <vType id="vehicleW_39" length="5.087000" accel="3.121000" decel="3.631000" sigma="0.5" minGap="2.444815" maxSpeed="139.983109" guiShape="passenger" />
   <vehicle id="straightW_39" type="vehicleW_39" route="edgeW_edgeE" depart="23" departLane="2" />

   <vType id="vehicleW_40" length="4.366000" accel="3.794000" decel="6.166000" sigma="0.5" minGap="2.444815" maxSpeed="139.983109" guiShape="passenger" />
   <vehicle id="straightW_40" type="vehicleW_40" route="edgeW_edgeE" depart="24" departLane="2" />

   <vType id="vehicleN_41" length="3.993000" accel="3.557000" decel="6.492000" sigma="0.5" minGap="2.444815" maxSpeed="139.983109" guiShape="passenger" />
   <vehicle id="straightN_41" type="vehicleN_41" route="edgeN_edgeS" depart="25" departLane="5" />

   <vType id="vehicleN_42" length="5.258000" accel="2.358000" decel="4.744000" sigma="0.5" minGap="2.444815" maxSpeed="139.983109" guiShape="passenger" />
   <vehicle id="leftN_42" type="vehicleN_42" route="edgeN_edgeE" depart="26" departLane="5" />

   <vType id="vehicleW_43" length="5.263000" accel="3.724000" decel="6.220000" sigma="0.5" minGap="2.444815" maxSpeed="139.983109" guiShape="passenger" />
   <vehicle id="rightW_43" type="vehicleW_43" route="edgeW_edgeS" depart="26" departLane="1" />

   <vType id="vehicleE_44" length="4.501000" accel="2.083000" decel="4.960000" sigma="0.5" minGap="2.444815" maxSpeed="139.983109" guiShape="passenger" />
   <vehicle id="straightE_44" type="vehicleE_44" route="edgeE_edgeW" depart="26" departLane="2" />

   <vType id="vehicleW_45" length="4.219000" accel="2.053000" decel="3.932000" sigma="0.5" minGap="2.444815" maxSpeed="139.983109" guiShape="passenger" />
   <vehicle id="straightW_45" type="vehicleW_45" route="edgeW_edgeE" depart="27" departLane="2" />

   <vType id="vehicleE_46" length="5.210000" accel="2.704000" decel="5.104000" sigma="0.5" minGap="2.444815" maxSpeed="139.983109" guiShape="passenger" />
   <vehicle id="leftE_46" type="vehicleE_46" route="edgeE_edgeS" depart="27" departLane="3" />

   <vType id="vehicleS_47" length="4.130000" accel="3.920000" decel="4.200000" sigma="0.5" minGap="2.444815" maxSpeed="139.983109" guiShape="passenger" />
   <vehicle id="uturnS_47" type="vehicleS_47" route="edgeS_edgeS" depart="28" departLane="6" />

   <vType id="vehicleW_48" length="5.129000" accel="2.630000" decel="5.462000" sigma="0.5" minGap="2.444815" maxSpeed="139.983109" guiShape="passenger" />
   <vehicle id="straightW_48" type="vehicleW_48" route="edgeW_edgeE" depart="28" departLane="2" />

   <vType id="vehicleE_49" length="4.784000" accel="3.437000" decel="5.965000" sigma="0.5" minGap="2.444815" maxSpeed="139.983109" guiShape="passenger" />
   <vehicle id="rightE_49" type="vehicleE_49" route="edgeE_edgeN" depart="29" departLane="1" />

   <vType id="vehicleN_50" length="5.012000" accel="2.663000" decel="4.380000" sigma="0.5" minGap="2.444815" maxSpeed="139.983109" guiShape="passenger" />
   <vehicle id="leftN_50" type="vehicleN_50" route="edgeN_edgeE" depart="30" departLane="5" />

   <vType id="vehicleW_51" length="4.548000" accel="2.806000" decel="4.312000" sigma="0.5" minGap="2.444815" maxSpeed="139.983109" guiShape="passenger" />
   <vehicle id="straightW_51" type="vehicleW_51" route="edgeW_edgeE" depart="30" departLane="2" />

   <vType id="vehicleE_52" length="4.495000" accel="3.494000" decel="3.861000" sigma="0.5" minGap="2.444815" maxSpeed="139.983109" guiShape="passenger" />
   <vehicle id="straightE_52" type="vehicleE_52" route="edgeE_edgeW" depart="30" departLane="2" />

   <vType id="vehicleN_53" length="4.358000" accel="2.424000" decel="6.127000" sigma="0.5" minGap="2.444815" maxSpeed="139.983109" guiShape="passenger" />
   <vehicle id="rightN_53" type="vehicleN_53" route="edgeN_edgeW" depart="31" departLane="2" />

   <vType id="vehicleE_54" length="5.442000" accel="3.589000" decel="3.845000" sigma="0.5" minGap="2.444815" maxSpeed="139.983109" guiShape="passenger" />
   <vehicle id="straightE_54" type="vehicleE_54" route="edgeE_edgeW" depart="31" departLane="2" />

   <vType id="vehicleN_55" length="4.930000" accel="2.192000" decel="6.743000" sigma="0.5" minGap="2.444815" maxSpeed="139.983109" guiShape="passenger" />
   <vehicle id="straightN_55" type="vehicleN_55" route="edgeN_edgeS" depart="32" departLane="3" />

   <vType id="vehicleW_56" length="3.851000" accel="2.493000" decel="4.977000" sigma="0.5" minGap="2.444815" maxSpeed="139.983109" guiShape="passenger" />
   <vehicle id="straightW_56" type="vehicleW_56" route="edgeW_edgeE" depart="32" departLane="2" />

   <vType id="vehicleN_57" length="5.054000" accel="3.781000" decel="6.404000" sigma="0.5" minGap="2.444815" maxSpeed="139.983109" guiShape="passenger" />
   <vehicle id="leftN_57" type="vehicleN_57" route="edgeN_edgeE" depart="34" departLane="5" />

   <vType id="vehicleW_58" length="5.070000" accel="2.930000" decel="5.281000" sigma="0.5" minGap="2.444815" maxSpeed="139.983109" guiShape="passenger" />
   <vehicle id="straightW_58" type="vehicleW_58" route="edgeW_edgeE" depart="34" departLane="2" />

   <vType id="vehicleN_59" length="4.801000" accel="3.790000" decel="5.971000" sigma="0.5" minGap="2.444815" maxSpeed="139.983109" guiShape="passenger" />
   <vehicle id="rightN_59" type="vehicleN_59" route="edgeN_edgeW" depart="37" departLane="2" />

   <vType id="vehicleN_60" length="4.686000" accel="2.482000" decel="4.846000" sigma="0.5" minGap="2.444815" maxSpeed="139.983109" guiShape="passenger" />
   <vehicle id="rightN_60" type="vehicleN_60" route="edgeN_edgeW" depart="38" departLane="2" />

   <vType id="vehicleN_61" length="4.502000" accel="2.310000" decel="4.009000" sigma="0.5" minGap="2.444815" maxSpeed="139.983109" guiShape="passenger" />
   <vehicle id="leftN_61" type="vehicleN_61" route="edgeN_edgeE" depart="39" departLane="6" />

   <vType id="vehicleN_62" length="5.449000" accel="3.168000" decel="5.793000" sigma="0.5" minGap="2.444815" maxSpeed="139.983109" guiShape="passenger" />
   <vehicle id="straightN_62" type="vehicleN_62" route="edgeN_edgeS" depart="40" departLane="5" />

   <vType id="vehicleE_63" length="5.425000" accel="3.668000" decel="5.210000" sigma="0.5" minGap="2.444815" maxSpeed="139.983109" guiShape="passenger" />
   <vehicle id="straightE_63" type="vehicleE_63" route="edgeE_edgeW" depart="40" departLane="2" />

   <vType id="vehicleN_64" length="4.688000" accel="2.779000" decel="5.694000" sigma="0.5" minGap="2.444815" maxSpeed="139.983109" guiShape="passenger" />
   <vehicle id="straightN_64" type="vehicleN_64" route="edgeN_edgeS" depart="41" departLane="5" />

   <vType id="vehicleS_65" length="5.380000" accel="2.368000" decel="4.180000" sigma="0.5" minGap="2.444815" maxSpeed="139.983109" guiShape="passenger" />
   <vehicle id="straightS_65" type="vehicleS_65" route="edgeS_edgeN" depart="43" departLane="4" />

   <vType id="vehicleW_66" length="5.188000" accel="2.760000" decel="6.002000" sigma="0.5" minGap="2.444815" maxSpeed="139.983109" guiShape="passenger" />
   <vehicle id="straightW_66" type="vehicleW_66" route="edgeW_edgeE" depart="43" departLane="2" />

   <vType id="vehicleE_67" length="3.841000" accel="3.079000" decel="6.920000" sigma="0.5" minGap="2.444815" maxSpeed="139.983109" guiShape="passenger" />
   <vehicle id="leftE_67" type="vehicleE_67" route="edgeE_edgeS" depart="43" departLane="3" />

   <vType id="vehicleN_68" length="5.544000" accel="2.086000" decel="3.332000" sigma="0.5" minGap="2.444815" maxSpeed="139.983109" guiShape="passenger" />
   <vehicle id="leftN_68" type="vehicleN_68" route="edgeN_edgeE" depart="44" departLane="5" />

   <vType id="vehicleS_69" length="4.083000" accel="2.257000" decel="5.696000" sigma="0.5" minGap="2.444815" maxSpeed="139.983109" guiShape="passenger" />
   <vehicle id="leftS_69" type="vehicleS_69" route="edgeS_edgeW" depart="44" departLane="5" />

   <vType id="vehicleE_70" length="4.906000" accel="3.922000" decel="5.878000" sigma="0.5" minGap="2.444815" maxSpeed="139.983109" guiShape="passenger" />
   <vehicle id="straightE_70" type="vehicleE_70" route="edgeE_edgeW" depart="44" departLane="2" />

   <vType id="vehicleS_71" length="4.373000" accel="3.353000" decel="6.766000" sigma="0.5" minGap="2.444815" maxSpeed="139.983109" guiShape="passenger" />
   <vehicle id="leftS_71" type="vehicleS_71" route="edgeS_edgeW" depart="45" departLane="6" />

   <vType id="vehicleE_72" length="5.314000" accel="2.489000" decel="5.799000" sigma="0.5" minGap="2.444815" maxSpeed="139.983109" guiShape="passenger" />
   <vehicle id="straightE_72" type="vehicleE_72" route="edgeE_edgeW" depart="45" departLane="2" />

   <vType id="vehicleW_73" length="5.227000" accel="2.697000" decel="4.804000" sigma="0.5" minGap="2.444815" maxSpeed="139.983109" guiShape="passenger" />
   <vehicle id="uturnW_73" type="vehicleW_73" route="edgeW_edgeW" depart="46" departLane="3" />

   <vType id="vehicleN_74" length="5.349000" accel="3.641000" decel="3.608000" sigma="0.5" minGap="2.444815" maxSpeed="139.983109" guiShape="passenger" />
   <vehicle id="straightN_74" type="vehicleN_74" route="edgeN_edgeS" depart="47" departLane="4" />

   <vType id="vehicleN_75" length="5.559000" accel="2.543000" decel="6.210000" sigma="0.5" minGap="2.444815" maxSpeed="139.983109" guiShape="passenger" />
   <vehicle id="straightN_75" type="vehicleN_75" route="edgeN_edgeS" depart="48" departLane="5" />

   <vType id="vehicleN_76" length="5.503000" accel="2.561000" decel="4.887000" sigma="0.5" minGap="2.444815" maxSpeed="139.983109" guiShape="passenger" />
   <vehicle id="leftN_76" type="vehicleN_76" route="edgeN_edgeE" depart="49" departLane="6" />

   <vType id="vehicleE_77" length="4.396000" accel="2.976000" decel="4.531000" sigma="0.5" minGap="2.444815" maxSpeed="139.983109" guiShape="passenger" />
   <vehicle id="straightE_77" type="vehicleE_77" route="edgeE_edgeW" depart="49" departLane="2" />

   <vType id="vehicleN_78" length="5.079000" accel="2.556000" decel="3.255000" sigma="0.5" minGap="2.444815" maxSpeed="139.983109" guiShape="passenger" />
   <vehicle id="rightN_78" type="vehicleN_78" route="edgeN_edgeW" depart="50" departLane="1" />

   <vType id="vehicleS_79" length="4.693000" accel="3.514000" decel="5.775000" sigma="0.5" minGap="2.444815" maxSpeed="139.983109" guiShape="passenger" />
   <vehicle id="straightS_79" type="vehicleS_79" route="edgeS_edgeN" depart="50" departLane="5" />

   <vType id="vehicleE_80" length="4.540000" accel="2.490000" decel="5.676000" sigma="0.5" minGap="2.444815" maxSpeed="139.983109" guiShape="passenger" />
   <vehicle id="straightE_80" type="vehicleE_80" route="edgeE_edgeW" depart="50" departLane="2" />

   <vType id="vehicleN_81" length="4.579000" accel="3.489000" decel="4.442000" sigma="0.5" minGap="2.444815" maxSpeed="139.983109" guiShape="passenger" />
   <vehicle id="straightN_81" type="vehicleN_81" route="edgeN_edgeS" depart="51" departLane="5" />

   <vType id="vehicleW_82" length="4.156000" accel="2.244000" decel="5.202000" sigma="0.5" minGap="2.444815" maxSpeed="139.983109" guiShape="passenger" />
   <vehicle id="straightW_82" type="vehicleW_82" route="edgeW_edgeE" depart="51" departLane="2" />

   <vType id="vehicleE_83" length="4.308000" accel="3.178000" decel="6.033000" sigma="0.5" minGap="2.444815" maxSpeed="139.983109" guiShape="passenger" />
   <vehicle id="straightE_83" type="vehicleE_83" route="edgeE_edgeW" depart="51" departLane="2" />

   <vType id="vehicleW_84" length="4.355000" accel="3.414000" decel="3.686000" sigma="0.5" minGap="2.444815" maxSpeed="139.983109" guiShape="passenger" />
   <vehicle id="straightW_84" type="vehicleW_84" route="edgeW_edgeE" depart="52" departLane="2" />

   <vType id="vehicleN_85" length="4.035000" accel="3.733000" decel="5.035000" sigma="0.5" minGap="2.444815" maxSpeed="139.983109" guiShape="passenger" />
   <vehicle id="straightN_85" type="vehicleN_85" route="edgeN_edgeS" depart="53" departLane="2" />

   <vType id="vehicleN_86" length="5.515000" accel="2.956000" decel="6.262000" sigma="0.5" minGap="2.444815" maxSpeed="139.983109" guiShape="passenger" />
   <vehicle id="leftN_86" type="vehicleN_86" route="edgeN_edgeE" depart="54" departLane="6" />

   <vType id="vehicleN_87" length="5.529000" accel="2.176000" decel="4.136000" sigma="0.5" minGap="2.444815" maxSpeed="139.983109" guiShape="passenger" />
   <vehicle id="rightN_87" type="vehicleN_87" route="edgeN_edgeW" depart="55" departLane="2" />

   <vType id="vehicleE_88" length="4.624000" accel="2.886000" decel="6.403000" sigma="0.5" minGap="2.444815" maxSpeed="139.983109" guiShape="passenger" />
   <vehicle id="straightE_88" type="vehicleE_88" route="edgeE_edgeW" depart="55" departLane="2" />

   <vType id="vehicleN_89" length="4.913000" accel="3.478000" decel="6.727000" sigma="0.5" minGap="2.444815" maxSpeed="139.983109" guiShape="passenger" />
   <vehicle id="straightN_89" type="vehicleN_89" route="edgeN_edgeS" depart="56" departLane="3" />

   <vType id="vehicleW_90" length="4.242000" accel="3.104000" decel="3.797000" sigma="0.5" minGap="2.444815" maxSpeed="139.983109" guiShape="passenger" />
   <vehicle id="leftW_90" type="vehicleW_90" route="edgeW_edgeN" depart="56" departLane="3" />

   <vType id="vehicleW_91" length="5.082000" accel="2.909000" decel="5.763000" sigma="0.5" minGap="2.444815" maxSpeed="139.983109" guiShape="passenger" />
   <vehicle id="straightW_91" type="vehicleW_91" route="edgeW_edgeE" depart="57" departLane="2" />

   <vType id="vehicleN_92" length="5.455000" accel="3.650000" decel="3.481000" sigma="0.5" minGap="2.444815" maxSpeed="139.983109" guiShape="passenger" />
   <vehicle id="straightN_92" type="vehicleN_92" route="edgeN_edgeS" depart="59" departLane="3" />

   <vType id="vehicleE_93" length="4.300000" accel="3.080000" decel="4.838000" sigma="0.5" minGap="2.444815" maxSpeed="139.983109" guiShape="passenger" />
   <vehicle id="straightE_93" type="vehicleE_93" route="edgeE_edgeW" depart="60" departLane="2" />

   <vType id="vehicleE_94" length="5.030000" accel="3.717000" decel="5.392000" sigma="0.5" minGap="2.444815" maxSpeed="139.983109" guiShape="passenger" />
   <vehicle id="straightE_94" type="vehicleE_94" route="edgeE_edgeW" depart="61" departLane="2" />

   <vType id="vehicleW_95" length="5.179000" accel="2.942000" decel="5.630000" sigma="0.5" minGap="2.444815" maxSpeed="139.983109" guiShape="passenger" />
   <vehicle id="leftW_95" type="vehicleW_95" route="edgeW_edgeN" depart="62" departLane="3" />

   <vType id="vehicleE_96" length="4.959000" accel="2.984000" decel="3.555000" sigma="0.5" minGap="2.444815" maxSpeed="139.983109" guiShape="passenger" />
   <vehicle id="straightE_96" type="vehicleE_96" route="edgeE_edgeW" depart="62" departLane="2" />

   <vType id="vehicleN_97" length="3.996000" accel="2.326000" decel="4.742000" sigma="0.5" minGap="2.444815" maxSpeed="139.983109" guiShape="passenger" />
   <vehicle id="straightN_97" type="vehicleN_97" route="edgeN_edgeS" depart="63" departLane="5" />

   <vType id="vehicleN_98" length="4.377000" accel="2.649000" decel="6.810000" sigma="0.5" minGap="2.444815" maxSpeed="139.983109" guiShape="passenger" />
   <vehicle id="straightN_98" type="vehicleN_98" route="edgeN_edgeS" depart="64" departLane="5" />

   <vType id="vehicleE_99" length="4.645000" accel="2.114000" decel="5.137000" sigma="0.5" minGap="2.444815" maxSpeed="139.983109" guiShape="passenger" />
   <vehicle id="rightE_99" type="vehicleE_99" route="edgeE_edgeN" depart="64" departLane="1" />

   <vType id="vehicleW_100" length="5.490000" accel="2.877000" decel="5.803000" sigma="0.5" minGap="2.444815" maxSpeed="139.983109" guiShape="passenger" />
   <vehicle id="straightW_100" type="vehicleW_100" route="edgeW_edgeE" depart="65" departLane="2" />

   <vType id="vehicleE_101" length="5.257000" accel="3.417000" decel="4.368000" sigma="0.5" minGap="2.444815" maxSpeed="139.983109" guiShape="passenger" />
   <vehicle id="straightE_101" type="vehicleE_101" route="edgeE_edgeW" depart="65" departLane="2" />

   <vType id="vehicleN_102" length="5.608000" accel="3.821000" decel="4.926000" sigma="0.5" minGap="2.444815" maxSpeed="139.983109" guiShape="passenger" />
   <vehicle id="leftN_102" type="vehicleN_102" route="edgeN_edgeE" depart="66" departLane="5" />

   <vType id="vehicleW_103" length="4.336000" accel="3.409000" decel="4.756000" sigma="0.5" minGap="2.444815" maxSpeed="139.983109" guiShape="passenger" />
   <vehicle id="rightW_103" type="vehicleW_103" route="edgeW_edgeS" depart="66" departLane="1" />

   <vType id="vehicleN_104" length="4.503000" accel="3.839000" decel="5.099000" sigma="0.5" minGap="2.444815" maxSpeed="139.983109" guiShape="passenger" />
   <vehicle id="straightN_104" type="vehicleN_104" route="edgeN_edgeS" depart="67" departLane="3" />

   <vType id="vehicleW_105" length="4.559000" accel="3.864000" decel="5.097000" sigma="0.5" minGap="2.444815" maxSpeed="139.983109" guiShape="passenger" />
   <vehicle id="straightW_105" type="vehicleW_105" route="edgeW_edgeE" depart="67" departLane="2" />

   <vType id="vehicleE_106" length="4.872000" accel="3.992000" decel="5.030000" sigma="0.5" minGap="2.444815" maxSpeed="139.983109" guiShape="passenger" />
   <vehicle id="straightE_106" type="vehicleE_106" route="edgeE_edgeW" depart="67" departLane="2" />

   <vType id="vehicleN_107" length="4.410000" accel="3.523000" decel="4.614000" sigma="0.5" minGap="2.444815" maxSpeed="139.983109" guiShape="passenger" />
   <vehicle id="straightN_107" type="vehicleN_107" route="edgeN_edgeS" depart="68" departLane="4" />

   <vType id="vehicleE_108" length="5.360000" accel="2.823000" decel="4.395000" sigma="0.5" minGap="2.444815" maxSpeed="139.983109" guiShape="passenger" />
   <vehicle id="straightE_108" type="vehicleE_108" route="edgeE_edgeW" depart="68" departLane="2" />

   <vType id="vehicleE_109" length="4.878000" accel="3.735000" decel="6.455000" sigma="0.5" minGap="2.444815" maxSpeed="139.983109" guiShape="passenger" />