<?xml version="1.0" encoding="UTF-8"?>

<!-- generated on 2021-10-23 05:40:36 by Eclipse SUMO netconvert Version 1.10.0
<configuration xmlns:xsi="http://www.w3.org/2001/XMLSchema-instance" xsi:noNamespaceSchemaLocation="http://sumo.dlr.de/xsd/netconvertConfiguration.xsd">

    <input>
        <node-files value="data6/cross.nod.xml"/>
        <edge-files value="data6/cross.edg.xml"/>
        <connection-files value="data6/cross.con.xml"/>
    </input>

    <output>
        <output-file value="data6/cross.net.xml"/>
    </output>

    <junctions>
        <no-turnarounds.except-turnlane value="true"/>
    </junctions>

    <report>
        <aggregate-warnings value="5"/>
    </report>

</configuration>
-->

<net version="1.9" junctionCornerDetail="5" limitTurnSpeed="5.50" xmlns:xsi="http://www.w3.org/2001/XMLSchema-instance" xsi:noNamespaceSchemaLocation="http://sumo.dlr.de/xsd/net_file.xsd">

    <location netOffset="1000.00,600.00" convBoundary="0.00,0.00,1500.00,1200.00" origBoundary="-1000.00,-600.00,500.00,600.00" projParameter="!"/>

    <edge id=":juncE_0" function="internal">
        <lane id=":juncE_0_0" index="0" disallow="pedestrian" speed="3.65" length="4.67" shape="1500.00,598.40 1501.20,599.20 1501.60,600.00 1501.20,600.80 1500.00,601.60"/>
    </edge>
    <edge id=":juncE_w0" function="walkingarea">
        <lane id=":juncE_w0_0" index="0" allow="pedestrian" speed="1.00" length="16.00" width="3.20" shape="1500.00,606.40 1500.00,609.60 1500.00,590.40 1500.00,593.60"/>
    </edge>
    <edge id=":juncMain_0" function="internal">
        <lane id=":juncMain_0_0" index="0" disallow="pedestrian" speed="17.11" length="22.20" shape="995.20,611.10 995.20,588.90"/>
        <lane id=":juncMain_0_1" index="1" disallow="pedestrian" speed="17.11" length="22.20" shape="998.40,611.10 998.40,588.90"/>
    </edge>
    <edge id=":juncMain_2" function="internal">
        <lane id=":juncMain_2_0" index="0" disallow="pedestrian" speed="10.08" length="18.55" shape="998.40,611.10 999.19,604.14 1001.57,599.17 1005.54,596.19 1006.60,596.00"/>
        <lane id=":juncMain_2_1" index="1" disallow="pedestrian" speed="9.51" length="15.94" shape="998.40,611.10 999.19,605.54 1001.57,601.58 1005.54,599.19 1006.60,599.04"/>
    </edge>
    <edge id=":juncMain_4" function="internal">
        <lane id=":juncMain_4_0" index="0" disallow="pedestrian" speed="3.65" length="4.67" shape="998.40,611.10 999.20,609.90 1000.00,609.50 1000.80,609.90 1001.60,611.10"/>
    </edge>
    <edge id=":juncMain_18" function="internal">
        <lane id=":juncMain_18_0" index="0" disallow="pedestrian" speed="10.08" length="4.57" shape="1006.60,596.00 1011.10,595.20"/>
    </edge>
    <edge id=":juncMain_19" function="internal">
        <lane id=":juncMain_19_0" index="0" disallow="pedestrian" speed="9.51" length="4.55" shape="1006.60,599.04 1011.10,598.40"/>
    </edge>
    <edge id=":juncMain_5" function="internal">
        <lane id=":juncMain_5_0" index="0" disallow="pedestrian" speed="18.44" length="22.20" shape="1011.10,604.80 988.90,604.80"/>
    </edge>
    <edge id=":juncMain_6" function="internal">
        <lane id=":juncMain_6_0" index="0" disallow="pedestrian" speed="10.08" length="18.59" shape="1011.10,604.80 1005.54,603.81 1001.58,600.82 999.19,595.86 998.91,593.40"/>
        <lane id=":juncMain_6_1" index="1" disallow="pedestrian" speed="9.51" length="15.94" shape="1011.10,601.60 1005.54,600.81 1001.58,598.43 999.19,594.46 999.04,593.40"/>
    </edge>
    <edge id=":juncMain_8" function="internal">
        <lane id=":juncMain_8_0" index="0" disallow="pedestrian" speed="3.65" length="4.67" shape="1011.10,601.60 1009.90,600.80 1009.50,600.00 1009.90,599.20 1011.10,598.40"/>
    </edge>
    <edge id=":juncMain_20" function="internal">
        <lane id=":juncMain_20_0" index="0" disallow="pedestrian" speed="10.08" length="4.53" shape="998.91,593.40 998.40,588.90"/>
    </edge>
    <edge id=":juncMain_21" function="internal">
        <lane id=":juncMain_21_0" index="0" disallow="pedestrian" speed="9.51" length="4.55" shape="999.04,593.40 998.40,588.90"/>
    </edge>
    <edge id=":juncMain_9" function="internal">
        <lane id=":juncMain_9_0" index="0" disallow="pedestrian" speed="17.11" length="22.20" shape="1004.80,588.90 1004.80,611.10"/>
        <lane id=":juncMain_9_1" index="1" disallow="pedestrian" speed="17.11" length="22.20" shape="1001.60,588.90 1001.60,611.10"/>
    </edge>
    <edge id=":juncMain_11" function="internal">
        <lane id=":juncMain_11_0" index="0" disallow="pedestrian" speed="10.08" length="18.55" shape="1001.60,588.90 1000.81,595.86 998.43,600.83 994.46,603.81 993.40,604.00"/>
        <lane id=":juncMain_11_1" index="1" disallow="pedestrian" speed="9.51" length="15.94" shape="1001.60,588.90 1000.81,594.46 998.43,598.42 994.46,600.81 993.40,600.96"/>
    </edge>
    <edge id=":juncMain_13" function="internal">
        <lane id=":juncMain_13_0" index="0" disallow="pedestrian" speed="3.65" length="4.67" shape="1001.60,588.90 1000.80,590.10 1000.00,590.50 999.20,590.10 998.40,588.90"/>
    </edge>
    <edge id=":juncMain_22" function="internal">
        <lane id=":juncMain_22_0" index="0" disallow="pedestrian" speed="10.08" length="4.57" shape="993.40,604.00 988.90,604.80"/>
    </edge>
    <edge id=":juncMain_23" function="internal">
        <lane id=":juncMain_23_0" index="0" disallow="pedestrian" speed="9.51" length="4.55" shape="993.40,600.96 988.90,601.60"/>
    </edge>
    <edge id=":juncMain_14" function="internal">
        <lane id=":juncMain_14_0" index="0" disallow="pedestrian" speed="18.44" length="22.20" shape="988.90,595.20 1011.10,595.20"/>
    </edge>
    <edge id=":juncMain_15" function="internal">
        <lane id=":juncMain_15_0" index="0" disallow="pedestrian" speed="10.08" length="18.59" shape="988.90,595.20 994.46,596.19 998.42,599.18 1000.81,604.14 1001.09,606.60"/>
        <lane id=":juncMain_15_1" index="1" disallow="pedestrian" speed="9.51" length="15.94" shape="988.90,598.40 994.46,599.19 998.42,601.57 1000.81,605.54 1000.96,606.60"/>
    </edge>
    <edge id=":juncMain_17" function="internal">
        <lane id=":juncMain_17_0" index="0" disallow="pedestrian" speed="3.65" length="4.67" shape="988.90,598.40 990.10,599.20 990.50,600.00 990.10,600.80 988.90,601.60"/>
    </edge>
    <edge id=":juncMain_24" function="internal">
        <lane id=":juncMain_24_0" index="0" disallow="pedestrian" speed="10.08" length="4.53" shape="1001.09,606.60 1001.60,611.10"/>
    </edge>
    <edge id=":juncMain_25" function="internal">
        <lane id=":juncMain_25_0" index="0" disallow="pedestrian" speed="9.51" length="4.55" shape="1000.96,606.60 1001.60,611.10"/>
    </edge>
    <edge id=":juncMain_c0" function="crossing" crossingEdges="edgeN_I edgeN_O">
        <lane id=":juncMain_c0_0" index="0" allow="pedestrian" speed="1.00" length="12.80" width="4.50" shape="1006.40,608.85 993.60,608.85"/>
    </edge>
    <edge id=":juncMain_c1" function="crossing" crossingEdges="edgeE_I edgeE_O">
        <lane id=":juncMain_c1_0" index="0" allow="pedestrian" speed="1.00" length="12.80" width="4.50" shape="1008.85,593.60 1008.85,606.40"/>
    </edge>
    <edge id=":juncMain_c2" function="crossing" crossingEdges="edgeS_I edgeS_O">
        <lane id=":juncMain_c2_0" index="0" allow="pedestrian" speed="1.00" length="12.80" width="4.50" shape="993.60,591.15 1006.40,591.15"/>
    </edge>
    <edge id=":juncMain_c3" function="crossing" crossingEdges="edgeW_I edgeW_O">
        <lane id=":juncMain_c3_0" index="0" allow="pedestrian" speed="1.00" length="12.80" width="4.50" shape="991.15,606.40 991.15,593.60"/>
    </edge>
    <edge id=":juncMain_w0" function="walkingarea">
        <lane id=":juncMain_w0_0" index="0" allow="pedestrian" speed="1.00" length="3.82" width="4.50" shape="988.90,606.40 988.90,609.60 990.40,611.10 993.60,611.10 993.47,609.66 993.08,608.49 992.43,607.58 991.51,606.92 990.34,606.53"/>
    </edge>
    <edge id=":juncMain_w1" function="walkingarea">
        <lane id=":juncMain_w1_0" index="0" allow="pedestrian" speed="1.00" length="3.82" width="4.50" shape="1006.40,611.10 1009.60,611.10 1011.10,609.60 1011.10,606.40 1009.66,606.53 1008.49,606.92 1007.58,607.57 1006.92,608.49 1006.53,609.66"/>
    </edge>
    <edge id=":juncMain_w2" function="walkingarea">
        <lane id=":juncMain_w2_0" index="0" allow="pedestrian" speed="1.00" length="3.82" width="4.50" shape="1011.10,593.60 1011.10,590.40 1009.60,588.90 1006.40,588.90 1006.53,590.34 1006.92,591.51 1007.57,592.42 1008.49,593.08 1009.66,593.47"/>
    </edge>
    <edge id=":juncMain_w3" function="walkingarea">
        <lane id=":juncMain_w3_0" index="0" allow="pedestrian" speed="1.00" length="3.82" width="4.50" shape="993.60,588.90 990.40,588.90 988.90,590.40 988.90,593.60 990.34,593.47 991.51,593.08 992.42,592.43 993.08,591.51 993.47,590.34"/>
    </edge>
    <edge id=":juncN_0" function="internal">
        <lane id=":juncN_0_0" index="0" disallow="pedestrian" speed="3.65" length="4.67" shape="1001.60,1200.00 1000.80,1201.20 1000.00,1201.60 999.20,1201.20 998.40,1200.00"/>
    </edge>
    <edge id=":juncN_w0" function="walkingarea">
        <lane id=":juncN_w0_0" index="0" allow="pedestrian" speed="1.00" length="16.00" width="3.20" shape="993.60,1200.00 990.40,1200.00 1009.60,1200.00 1006.40,1200.00"/>
    </edge>
    <edge id=":juncS_0" function="internal">
        <lane id=":juncS_0_0" index="0" disallow="pedestrian" speed="3.65" length="4.67" shape="998.40,0.00 999.20,-1.20 1000.00,-1.60 1000.80,-1.20 1001.60,0.00"/>
    </edge>
    <edge id=":juncS_w0" function="walkingarea">
        <lane id=":juncS_w0_0" index="0" allow="pedestrian" speed="1.00" length="16.00" width="3.20" shape="1006.40,0.00 1009.60,0.00 990.40,0.00 993.60,0.00"/>
    </edge>
    <edge id=":juncW_0" function="internal">
        <lane id=":juncW_0_0" index="0" disallow="pedestrian" speed="3.65" length="4.67" shape="0.00,601.60 -1.20,600.80 -1.60,600.00 -1.20,599.20 0.00,598.40"/>
    </edge>
    <edge id=":juncW_w0" function="walkingarea">
        <lane id=":juncW_w0_0" index="0" allow="pedestrian" speed="1.00" length="16.00" width="3.20" shape="0.00,593.60 0.00,590.40 0.00,609.60 0.00,606.40"/>
    </edge>

    <edge id="edgeE_I" from="juncMain" to="juncE" priority="46">
        <lane id="edgeE_I_0" index="0" allow="pedestrian" speed="25.45" length="488.90" shape="1011.10,592.00 1500.00,592.00"/>
        <lane id="edgeE_I_1" index="1" disallow="pedestrian" speed="25.45" length="488.90" shape="1011.10,595.20 1500.00,595.20"/>
        <lane id="edgeE_I_2" index="2" disallow="pedestrian" speed="25.45" length="488.90" shape="1011.10,598.40 1500.00,598.40"/>
    </edge>
    <edge id="edgeE_O" from="juncE" to="juncMain" priority="78">
        <lane id="edgeE_O_0" index="0" allow="pedestrian" speed="11.42" length="488.90" shape="1500.00,608.00 1011.10,608.00"/>
        <lane id="edgeE_O_1" index="1" disallow="pedestrian" speed="11.42" length="488.90" shape="1500.00,604.80 1011.10,604.80"/>
        <lane id="edgeE_O_2" index="2" disallow="pedestrian" speed="11.42" length="488.90" shape="1500.00,601.60 1011.10,601.60"/>
    </edge>
    <edge id="edgeN_I" from="juncMain" to="juncN" priority="46">
        <lane id="edgeN_I_0" index="0" allow="pedestrian" speed="13.69" length="588.90" shape="1008.00,611.10 1008.00,1200.00"/>
        <lane id="edgeN_I_1" index="1" disallow="pedestrian" speed="13.69" length="588.90" shape="1004.80,611.10 1004.80,1200.00"/>
        <lane id="edgeN_I_2" index="2" disallow="pedestrian" speed="13.69" length="588.90" shape="1001.60,611.10 1001.60,1200.00"/>
    </edge>
    <edge id="edgeN_O" from="juncN" to="juncMain" priority="78">
        <lane id="edgeN_O_0" index="0" allow="pedestrian" speed="20.53" length="588.90" shape="992.00,1200.00 992.00,611.10"/>
        <lane id="edgeN_O_1" index="1" disallow="pedestrian" speed="20.53" length="588.90" shape="995.20,1200.00 995.20,611.10"/>
        <lane id="edgeN_O_2" index="2" disallow="pedestrian" speed="20.53" length="588.90" shape="998.40,1200.00 998.40,611.10"/>
    </edge>
    <edge id="edgeS_I" from="juncMain" to="juncS" priority="46">
        <lane id="edgeS_I_0" index="0" allow="pedestrian" speed="13.69" length="588.90" shape="992.00,588.90 992.00,0.00"/>
        <lane id="edgeS_I_1" index="1" disallow="pedestrian" speed="13.69" length="588.90" shape="995.20,588.90 995.20,0.00"/>
        <lane id="edgeS_I_2" index="2" disallow="pedestrian" speed="13.69" length="588.90" shape="998.40,588.90 998.40,0.00"/>
    </edge>
    <edge id="edgeS_O" from="juncS" to="juncMain" priority="78">
        <lane id="edgeS_O_0" index="0" allow="pedestrian" speed="20.53" length="588.90" shape="1008.00,0.00 1008.00,588.90"/>
        <lane id="edgeS_O_1" index="1" disallow="pedestrian" speed="20.53" length="588.90" shape="1004.80,0.00 1004.80,588.90"/>
        <lane id="edgeS_O_2" index="2" disallow="pedestrian" speed="20.53" length="588.90" shape="1001.60,0.00 1001.60,588.90"/>
    </edge>
    <edge id="edgeW_I" from="juncMain" to="juncW" priority="46">
        <lane id="edgeW_I_0" index="0" allow="pedestrian" speed="25.45" length="988.90" shape="988.90,608.00 0.00,608.00"/>
        <lane id="edgeW_I_1" index="1" disallow="pedestrian" speed="25.45" length="988.90" shape="988.90,604.80 0.00,604.80"/>
        <lane id="edgeW_I_2" index="2" disallow="pedestrian" speed="25.45" length="988.90" shape="988.90,601.60 0.00,601.60"/>
    </edge>
    <edge id="edgeW_O" from="juncW" to="juncMain" priority="78">
        <lane id="edgeW_O_0" index="0" allow="pedestrian" speed="11.42" length="988.90" shape="0.00,592.00 988.90,592.00"/>
        <lane id="edgeW_O_1" index="1" disallow="pedestrian" speed="11.42" length="988.90" shape="0.00,595.20 988.90,595.20"/>
        <lane id="edgeW_O_2" index="2" disallow="pedestrian" speed="11.42" length="988.90" shape="0.00,598.40 988.90,598.40"/>
    </edge>

    <tlLogic id="juncMain" type="static" programID="0" offset="0">
        <phase duration="11" state="rrrrrrrrrGGggGrrrrrGrG"/>
        <phase duration="5"  state="rrrrrrrrrGGggGrrrrrrrr"/>
        <phase duration="5"  state="rrrrrrrrryyyyyrrrrrrrr"/>
        <phase duration="13" state="rrrrrrrrrrrrrrGggGGrGr"/>
        <phase duration="5"  state="rrrrrrrrrrrrrrGggGrrrr"/>
        <phase duration="5"  state="rrrrrrrrrrrrrryyyyrrrr"/>
        <phase duration="13" state="GGggGrrrrrrrrrrrrrrGrG"/>
        <phase duration="5"  state="GGggGrrrrrrrrrrrrrrrrr"/>
        <phase duration="5"  state="yyyyyrrrrrrrrrrrrrrrrr"/>
        <phase duration="13" state="rrrrrGggGrrrrrrrrrGrGr"/>
        <phase duration="5"  state="rrrrrGggGrrrrrrrrrrrrr"/>
        <phase duration="5"  state="rrrrryyyyrrrrrrrrrrrrr"/>
    </tlLogic>

    <junction id="juncE" type="priority" x="1500.00" y="600.00" incLanes="edgeE_I_0 edgeE_I_1 edgeE_I_2" intLanes=":juncE_0_0" shape="1500.00,600.00 1500.00,590.40 1500.00,600.00">
        <request index="0" response="0" foes="0" cont="0"/>
    </junction>
    <junction id="juncMain" type="traffic_light" x="1000.00" y="600.00" incLanes="edgeN_O_0 edgeN_O_1 edgeN_O_2 edgeE_O_0 edgeE_O_1 edgeE_O_2 edgeS_O_0 edgeS_O_1 edgeS_O_2 edgeW_O_0 edgeW_O_1 edgeW_O_2 :juncMain_w1_0 :juncMain_w2_0 :juncMain_w3_0 :juncMain_w0_0" intLanes=":juncMain_0_0 :juncMain_0_1 :juncMain_18_0 :juncMain_19_0 :juncMain_4_0 :juncMain_5_0 :juncMain_20_0 :juncMain_21_0 :juncMain_8_0 :juncMain_9_0 :juncMain_9_1 :juncMain_22_0 :juncMain_23_0 :juncMain_13_0 :juncMain_14_0 :juncMain_24_0 :juncMain_25_0 :juncMain_17_0 :juncMain_c0_0 :juncMain_c1_0 :juncMain_c2_0 :juncMain_c3_0" shape="990.40,611.10 1009.60,611.10 1009.77,610.27 1009.98,609.98 1010.27,609.77 1010.64,609.64 1011.10,609.60 1011.10,590.40 1010.27,590.23 1009.98,590.02 1009.77,589.73 1009.64,589.36 1009.60,588.90 990.40,588.90 990.23,589.73 990.02,590.02 989.73,590.23 989.36,590.36 988.90,590.40 988.90,609.60 989.73,609.77 990.02,609.98 990.23,610.27 990.36,610.64">
        <request index="0"  response="0101011001100011000000" foes="0101011111100011100000" cont="0"/>
        <request index="1"  response="0101011001100011000000" foes="0101011111100011100000" cont="0"/>
        <request index="2"  response="0011011000011011000000" foes="0011011100011111100000" cont="1"/>
        <request index="3"  response="0011011000011011000000" foes="0011011100011111100000" cont="1"/>
        <request index="4"  response="0001011000011000000000" foes="0001011000011000000000" cont="0"/>
        <request index="5"  response="1010011001111000001111" foes="1010011001111000001111" cont="0"/>
        <request index="6"  response="0110000101111010001111" foes="0110000111111010001111" cont="1"/>
        <request index="7"  response="0110000101111000001111" foes="0110000111111001001111" cont="1"/>
        <request index="8"  response="0010000000000000001100" foes="0010000000000000001100" cont="0"/>
        <request index="9"  response="0101011000000011001100" foes="0101011100000011111100" cont="0"/>
        <request index="10" response="0101011000000011001100" foes="0101011100000011111100" cont="0"/>
        <request index="11" response="1100011000000011000011" foes="1100111100000011100011" cont="1"/>
        <request index="12" response="1100011000000011000011" foes="1100111100000011100011" cont="1"/>
        <request index="13" response="0100000000000011000011" foes="0100000000000011000011" cont="0"/>
        <request index="14" response="1010000001111011001111" foes="1010000001111011001111" cont="0"/>
        <request index="15" response="1001010001111000101111" foes="1001010001111000111111" cont="1"/>
        <request index="16" response="1001000001111000101111" foes="1001001001111000111111" cont="1"/>
        <request index="17" response="1000000001100000000000" foes="1000000001100000000000" cont="0"/>
        <request index="18" response="0000000000000000000000" foes="0000011000011000011111" cont="0"/>
        <request index="19" response="0000000000000000000000" foes="0000000100000111101100" cont="0"/>
        <request index="20" response="0000000000000000000000" foes="0000000011111011000011" cont="0"/>
        <request index="21" response="0000000000000000000000" foes="0000111101100000100000" cont="0"/>
    </junction>
    <junction id="juncN" type="priority" x="1000.00" y="1200.00" incLanes="edgeN_I_0 edgeN_I_1 edgeN_I_2" intLanes=":juncN_0_0" shape="1000.00,1200.00 1009.60,1200.00 1000.00,1200.00">
        <request index="0" response="0" foes="0" cont="0"/>
    </junction>
    <junction id="juncS" type="priority" x="1000.00" y="0.00" incLanes="edgeS_I_0 edgeS_I_1 edgeS_I_2" intLanes=":juncS_0_0" shape="1000.00,0.00 990.40,0.00 1000.00,0.00">
        <request index="0" response="0" foes="0" cont="0"/>
    </junction>
    <junction id="juncW" type="priority" x="0.00" y="600.00" incLanes="edgeW_I_0 edgeW_I_1 edgeW_I_2" intLanes=":juncW_0_0" shape="0.00,600.00 0.00,609.60 0.00,600.00">
        <request index="0" response="0" foes="0" cont="0"/>
    </junction>

    <junction id=":juncMain_18_0" type="internal" x="1006.60" y="596.00" incLanes=":juncMain_2_0" intLanes=":juncMain_5_0 :juncMain_6_0 :juncMain_6_1 :juncMain_8_0 :juncMain_9_0 :juncMain_9_1 :juncMain_14_0 :juncMain_15_0 :juncMain_15_1 :juncMain_c0_0 :juncMain_c1_0"/>
    <junction id=":juncMain_19_0" type="internal" x="1006.60" y="599.04" incLanes=":juncMain_2_1" intLanes=":juncMain_5_0 :juncMain_6_0 :juncMain_6_1 :juncMain_8_0 :juncMain_9_0 :juncMain_9_1 :juncMain_14_0 :juncMain_15_0 :juncMain_15_1 :juncMain_c0_0 :juncMain_c1_0"/>
    <junction id=":juncMain_20_0" type="internal" x="998.91" y="593.40" incLanes=":juncMain_6_0" intLanes=":juncMain_0_0 :juncMain_0_1 :juncMain_2_0 :juncMain_2_1 :juncMain_6_1 :juncMain_9_0 :juncMain_9_1 :juncMain_11_0 :juncMain_11_1 :juncMain_13_0 :juncMain_14_0 :juncMain_c1_0 :juncMain_c2_0"/>
    <junction id=":juncMain_21_0" type="internal" x="999.04" y="593.40" incLanes=":juncMain_6_1" intLanes=":juncMain_0_0 :juncMain_0_1 :juncMain_2_0 :juncMain_2_1 :juncMain_6_0 :juncMain_9_0 :juncMain_9_1 :juncMain_11_0 :juncMain_11_1 :juncMain_13_0 :juncMain_14_0 :juncMain_c1_0 :juncMain_c2_0"/>
    <junction id=":juncMain_22_0" type="internal" x="993.40" y="604.00" incLanes=":juncMain_11_0" intLanes=":juncMain_0_0 :juncMain_0_1 :juncMain_5_0 :juncMain_6_0 :juncMain_6_1 :juncMain_14_0 :juncMain_15_0 :juncMain_15_1 :juncMain_17_0 :juncMain_c2_0 :juncMain_c3_0"/>
    <junction id=":juncMain_23_0" type="internal" x="993.40" y="600.96" incLanes=":juncMain_11_1" intLanes=":juncMain_0_0 :juncMain_0_1 :juncMain_5_0 :juncMain_6_0 :juncMain_6_1 :juncMain_14_0 :juncMain_15_0 :juncMain_15_1 :juncMain_17_0 :juncMain_c2_0 :juncMain_c3_0"/>
    <junction id=":juncMain_24_0" type="internal" x="1001.09" y="606.60" incLanes=":juncMain_15_0" intLanes=":juncMain_0_0 :juncMain_0_1 :juncMain_2_0 :juncMain_2_1 :juncMain_4_0 :juncMain_5_0 :juncMain_9_0 :juncMain_9_1 :juncMain_11_0 :juncMain_11_1 :juncMain_15_1 :juncMain_c0_0 :juncMain_c3_0"/>
    <junction id=":juncMain_25_0" type="internal" x="1000.96" y="606.60" incLanes=":juncMain_15_1" intLanes=":juncMain_0_0 :juncMain_0_1 :juncMain_2_0 :juncMain_2_1 :juncMain_4_0 :juncMain_5_0 :juncMain_9_0 :juncMain_9_1 :juncMain_11_0 :juncMain_11_1 :juncMain_15_0 :juncMain_c0_0 :juncMain_c3_0"/>

    <connection from="edgeE_I" to="edgeE_O" fromLane="2" toLane="2" via=":juncE_0_0" dir="t" state="M"/>
    <connection from="edgeE_O" to="edgeW_I" fromLane="1" toLane="1" via=":juncMain_5_0" tl="juncMain" linkIndex="5" dir="s" state="o"/>
    <connection from="edgeE_O" to="edgeS_I" fromLane="1" toLane="2" via=":juncMain_6_0" tl="juncMain" linkIndex="6" dir="l" state="o"/>
    <connection from="edgeE_O" to="edgeS_I" fromLane="2" toLane="2" via=":juncMain_6_1" tl="juncMain" linkIndex="7" dir="l" state="o"/>
    <connection from="edgeE_O" to="edgeE_I" fromLane="2" toLane="2" via=":juncMain_8_0" tl="juncMain" linkIndex="8" dir="t" state="o"/>
    <connection from="edgeN_I" to="edgeN_O" fromLane="2" toLane="2" via=":juncN_0_0" dir="t" state="M"/>
    <connection from="edgeN_O" to="edgeS_I" fromLane="1" toLane="1" via=":juncMain_0_0" tl="juncMain" linkIndex="0" dir="s" state="o"/>
    <connection from="edgeN_O" to="edgeS_I" fromLane="2" toLane="2" via=":juncMain_0_1" tl="juncMain" linkIndex="1" dir="s" state="o"/>
    <connection from="edgeN_O" to="edgeE_I" fromLane="2" toLane="1" via=":juncMain_2_0" tl="juncMain" linkIndex="2" dir="l" state="o"/>
    <connection from="edgeN_O" to="edgeE_I" fromLane="2" toLane="2" via=":juncMain_2_1" tl="juncMain" linkIndex="3" dir="l" state="o"/>
    <connection from="edgeN_O" to="edgeN_I" fromLane="2" toLane="2" via=":juncMain_4_0" tl="juncMain" linkIndex="4" dir="t" state="o"/>
    <connection from="edgeS_I" to="edgeS_O" fromLane="2" toLane="2" via=":juncS_0_0" dir="t" state="M"/>
    <connection from="edgeS_O" to="edgeN_I" fromLane="1" toLane="1" via=":juncMain_9_0" tl="juncMain" linkIndex="9" dir="s" state="o"/>
    <connection from="edgeS_O" to="edgeN_I" fromLane="2" toLane="2" via=":juncMain_9_1" tl="juncMain" linkIndex="10" dir="s" state="o"/>
    <connection from="edgeS_O" to="edgeW_I" fromLane="2" toLane="1" via=":juncMain_11_0" tl="juncMain" linkIndex="11" dir="l" state="o"/>
    <connection from="edgeS_O" to="edgeW_I" fromLane="2" toLane="2" via=":juncMain_11_1" tl="juncMain" linkIndex="12" dir="l" state="o"/>
    <connection from="edgeS_O" to="edgeS_I" fromLane="2" toLane="2" via=":juncMain_13_0" tl="juncMain" linkIndex="13" dir="t" state="o"/>
    <connection from="edgeW_I" to="edgeW_O" fromLane="2" toLane="2" via=":juncW_0_0" dir="t" state="M"/>
    <connection from="edgeW_O" to="edgeE_I" fromLane="1" toLane="1" via=":juncMain_14_0" tl="juncMain" linkIndex="14" dir="s" state="o"/>
    <connection from="edgeW_O" to="edgeN_I" fromLane="1" toLane="2" via=":juncMain_15_0" tl="juncMain" linkIndex="15" dir="l" state="o"/>
    <connection from="edgeW_O" to="edgeN_I" fromLane="2" toLane="2" via=":juncMain_15_1" tl="juncMain" linkIndex="16" dir="l" state="o"/>
    <connection from="edgeW_O" to="edgeW_I" fromLane="2" toLane="2" via=":juncMain_17_0" tl="juncMain" linkIndex="17" dir="t" state="o"/>

    <connection from=":juncE_0" to="edgeE_O" fromLane="0" toLane="2" dir="t" state="M"/>
    <connection from=":juncMain_0" to="edgeS_I" fromLane="0" toLane="1" dir="s" state="M"/>
    <connection from=":juncMain_0" to="edgeS_I" fromLane="1" toLane="2" dir="s" state="M"/>
    <connection from=":juncMain_2" to="edgeE_I" fromLane="0" toLane="1" via=":juncMain_18_0" dir="l" state="m"/>
    <connection from=":juncMain_18" to="edgeE_I" fromLane="0" toLane="1" dir="l" state="M"/>
    <connection from=":juncMain_2" to="edgeE_I" fromLane="1" toLane="2" via=":juncMain_19_0" dir="l" state="m"/>
    <connection from=":juncMain_19" to="edgeE_I" fromLane="0" toLane="2" dir="l" state="M"/>
    <connection from=":juncMain_4" to="edgeN_I" fromLane="0" toLane="2" dir="t" state="M"/>
    <connection from=":juncMain_5" to="edgeW_I" fromLane="0" toLane="1" dir="s" state="M"/>
    <connection from=":juncMain_6" to="edgeS_I" fromLane="0" toLane="2" via=":juncMain_20_0" dir="l" state="m"/>
    <connection from=":juncMain_20" to="edgeS_I" fromLane="0" toLane="2" dir="l" state="M"/>
    <connection from=":juncMain_6" to="edgeS_I" fromLane="1" toLane="2" via=":juncMain_21_0" dir="l" state="m"/>
    <connection from=":juncMain_21" to="edgeS_I" fromLane="0" toLane="2" dir="l" state="M"/>
    <connection from=":juncMain_8" to="edgeE_I" fromLane="0" toLane="2" dir="t" state="M"/>
    <connection from=":juncMain_9" to="edgeN_I" fromLane="0" toLane="1" dir="s" state="M"/>
    <connection from=":juncMain_9" to="edgeN_I" fromLane="1" toLane="2" dir="s" state="M"/>
    <connection from=":juncMain_11" to="edgeW_I" fromLane="0" toLane="1" via=":juncMain_22_0" dir="l" state="m"/>
    <connection from=":juncMain_22" to="edgeW_I" fromLane="0" toLane="1" dir="l" state="M"/>
    <connection from=":juncMain_11" to="edgeW_I" fromLane="1" toLane="2" via=":juncMain_23_0" dir="l" state="m"/>
    <connection from=":juncMain_23" to="edgeW_I" fromLane="0" toLane="2" dir="l" state="M"/>
    <connection from=":juncMain_13" to="edgeS_I" fromLane="0" toLane="2" dir="t" state="M"/>
    <connection from=":juncMain_14" to="edgeE_I" fromLane="0" toLane="1" dir="s" state="M"/>
    <connection from=":juncMain_15" to="edgeN_I" fromLane="0" toLane="2" via=":juncMain_24_0" dir="l" state="m"/>
    <connection from=":juncMain_24" to="edgeN_I" fromLane="0" toLane="2" dir="l" state="M"/>
    <connection from=":juncMain_15" to="edgeN_I" fromLane="1" toLane="2" via=":juncMain_25_0" dir="l" state="m"/>
    <connection from=":juncMain_25" to="edgeN_I" fromLane="0" toLane="2" dir="l" state="M"/>
    <connection from=":juncMain_17" to="edgeW_I" fromLane="0" toLane="2" dir="t" state="M"/>
    <connection from=":juncN_0" to="edgeN_O" fromLane="0" toLane="2" dir="t" state="M"/>
    <connection from=":juncS_0" to="edgeS_O" fromLane="0" toLane="2" dir="t" state="M"/>
    <connection from=":juncW_0" to="edgeW_O" fromLane="0" toLane="2" dir="t" state="M"/>

    <connection from=":juncE_w0" to="edgeE_O" fromLane="0" toLane="0" dir="s" state="M"/>
    <connection from="edgeE_I" to=":juncE_w0" fromLane="0" toLane="0" dir="s" state="M"/>
    <connection from=":juncMain_c0" to=":juncMain_w0" fromLane="0" toLane="0" dir="s" state="M"/>
    <connection from=":juncMain_c1" to=":juncMain_w1" fromLane="0" toLane="0" dir="s" state="M"/>
    <connection from=":juncMain_c2" to=":juncMain_w2" fromLane="0" toLane="0" dir="s" state="M"/>
    <connection from=":juncMain_c3" to=":juncMain_w3" fromLane="0" toLane="0" dir="s" state="M"/>
    <connection from=":juncMain_w0" to=":juncMain_c3" fromLane="0" toLane="0" tl="juncMain" linkIndex="21" dir="s" state="M"/>
    <connection from=":juncMain_w0" to="edgeW_I" fromLane="0" toLane="0" dir="s" state="M"/>
    <connection from="edgeN_O" to=":juncMain_w0" fromLane="0" toLane="0" dir="s" state="M"/>
    <connection from=":juncMain_w1" to=":juncMain_c0" fromLane="0" toLane="0" tl="juncMain" linkIndex="18" dir="s" state="M"/>
    <connection from=":juncMain_w1" to="edgeN_I" fromLane="0" toLane="0" dir="s" state="M"/>
    <connection from="edgeE_O" to=":juncMain_w1" fromLane="0" toLane="0" dir="s" state="M"/>
    <connection from=":juncMain_w2" to=":juncMain_c1" fromLane="0" toLane="0" tl="juncMain" linkIndex="19" dir="s" state="M"/>
    <connection from=":juncMain_w2" to="edgeE_I" fromLane="0" toLane="0" dir="s" state="M"/>
    <connection from="edgeS_O" to=":juncMain_w2" fromLane="0" toLane="0" dir="s" state="M"/>
    <connection from=":juncMain_w3" to=":juncMain_c2" fromLane="0" toLane="0" tl="juncMain" linkIndex="20" dir="s" state="M"/>
    <connection from=":juncMain_w3" to="edgeS_I" fromLane="0" toLane="0" dir="s" state="M"/>
    <connection from="edgeW_O" to=":juncMain_w3" fromLane="0" toLane="0" dir="s" state="M"/>
    <connection from=":juncN_w0" to="edgeN_O" fromLane="0" toLane="0" dir="s" state="M"/>
    <connection from="edgeN_I" to=":juncN_w0" fromLane="0" toLane="0" dir="s" state="M"/>
    <connection from=":juncS_w0" to="edgeS_O" fromLane="0" toLane="0" dir="s" state="M"/>
    <connection from="edgeS_I" to=":juncS_w0" fromLane="0" toLane="0" dir="s" state="M"/>
    <connection from=":juncW_w0" to="edgeW_O" fromLane="0" toLane="0" dir="s" state="M"/>
    <connection from="edgeW_I" to=":juncW_w0" fromLane="0" toLane="0" dir="s" state="M"/>
</net>
