<routes>
   <personFlow id="pRegN" begin="0" end="3000" personsPerHour="754.663562">
        <walk edges="edgeN_O edgeS_I" speed="1.219874"/>
    </personFlow>
   <personFlow id="pRegS" begin="0" end="3000" personsPerHour="594.465753">
        <walk edges="edgeS_O edgeN_I" speed="1.309726"/>
    </personFlow>
   <personFlow id="pRegW" begin="0" end="3000" personsPerHour="71.682146">
        <walk edges="edgeW_O edgeE_I" speed="2.123724"/>
    </personFlow>
   <personFlow id="pRegE" begin="0" end="3000" personsPerHour="218.602200">
        <walk edges="edgeE_O edgeW_I" speed="1.529307"/>
    </personFlow>
   <personFlow id="pOppN" begin="0" end="3000" personsPerHour="244.901872" departPos="600.000000">
        <walk edges="edgeN_I edgeS_O" speed="1.593490"/>
    </personFlow>
   <personFlow id="pOppS" begin="0" end="3000" personsPerHour="544.096341" departPos="600.000000">
        <walk edges="edgeS_I edgeN_O" speed="1.434947"/>
    </personFlow>
   <personFlow id="pOppW" begin="0" end="3000" personsPerHour="462.044952" departPos="1000.000000">
        <walk edges="edgeW_I edgeE_O" speed="1.098630"/>
    </personFlow>
   <personFlow id="pOppE" begin="0" end="3000" personsPerHour="716.336732" departPos="500.000000">
        <walk edges="edgeE_I edgeW_O" speed="1.555708"/>
    </personFlow>

    <route id="edgeN_edgeN" edges="edgeN_O edgeN_I" />
    <route id="edgeN_edgeS" edges="edgeN_O edgeS_I" />
    <route id="edgeN_edgeW" edges="edgeN_O edgeW_I" />
    <route id="edgeN_edgeE" edges="edgeN_O edgeE_I" />
    <route id="edgeS_edgeN" edges="edgeS_O edgeN_I" />
    <route id="edgeS_edgeS" edges="edgeS_O edgeS_I" />
    <route id="edgeS_edgeW" edges="edgeS_O edgeW_I" />
    <route id="edgeS_edgeE" edges="edgeS_O edgeE_I" />
    <route id="edgeW_edgeN" edges="edgeW_O edgeN_I" />
    <route id="edgeW_edgeS" edges="edgeW_O edgeS_I" />
    <route id="edgeW_edgeW" edges="edgeW_O edgeW_I" />
    <route id="edgeW_edgeE" edges="edgeW_O edgeE_I" />
    <route id="edgeE_edgeN" edges="edgeE_O edgeN_I" />
    <route id="edgeE_edgeS" edges="edgeE_O edgeS_I" />
    <route id="edgeE_edgeW" edges="edgeE_O edgeW_I" />
    <route id="edgeE_edgeE" edges="edgeE_O edgeE_I" />
    
   <vType id="vehicleS_0" length="4.289000" accel="3.201000" decel="4.670000" sigma="0.5" minGap="2.514811" maxSpeed="140.571283" guiShape="passenger" />
   <vehicle id="straightS_0" type="vehicleS_0" route="edgeS_edgeN" depart="0" departLane="1" />

   <vType id="vehicleE_1" length="4.305000" accel="3.030000" decel="4.358000" sigma="0.5" minGap="2.514811" maxSpeed="140.571283" guiShape="passenger" />
   <vehicle id="leftE_1" type="vehicleE_1" route="edgeE_edgeS" depart="0" departLane="2" />

   <vType id="vehicleN_2" length="5.266000" accel="2.274000" decel="5.020000" sigma="0.5" minGap="2.514811" maxSpeed="140.571283" guiShape="passenger" />
   <vehicle id="straightN_2" type="vehicleN_2" route="edgeN_edgeS" depart="1" departLane="2" />

   <vType id="vehicleW_3" length="4.478000" accel="2.383000" decel="3.100000" sigma="0.5" minGap="2.514811" maxSpeed="140.571283" guiShape="passenger" />
   <vehicle id="straightW_3" type="vehicleW_3" route="edgeW_edgeE" depart="1" departLane="1" />

   <vType id="vehicleE_4" length="4.400000" accel="2.367000" decel="3.469000" sigma="0.5" minGap="2.514811" maxSpeed="140.571283" guiShape="passenger" />
   <vehicle id="leftE_4" type="vehicleE_4" route="edgeE_edgeS" depart="4" departLane="1" />

   <vType id="vehicleE_5" length="5.034000" accel="3.157000" decel="4.689000" sigma="0.5" minGap="2.514811" maxSpeed="140.571283" guiShape="passenger" />
   <vehicle id="straightE_5" type="vehicleE_5" route="edgeE_edgeW" depart="5" departLane="1" />

   <vType id="vehicleS_6" length="4.190000" accel="2.747000" decel="5.517000" sigma="0.5" minGap="2.514811" maxSpeed="140.571283" guiShape="passenger" />
   <vehicle id="straightS_6" type="vehicleS_6" route="edgeS_edgeN" depart="6" departLane="1" />

   <vType id="vehicleW_7" length="4.364000" accel="2.533000" decel="5.391000" sigma="0.5" minGap="2.514811" maxSpeed="140.571283" guiShape="passenger" />
   <vehicle id="leftW_7" type="vehicleW_7" route="edgeW_edgeN" depart="7" departLane="2" />

   <vType id="vehicleE_8" length="5.391000" accel="3.082000" decel="3.225000" sigma="0.5" minGap="2.514811" maxSpeed="140.571283" guiShape="passenger" />
   <vehicle id="straightE_8" type="vehicleE_8" route="edgeE_edgeW" depart="7" departLane="1" />

   <vType id="vehicleN_9" length="4.355000" accel="3.008000" decel="5.269000" sigma="0.5" minGap="2.514811" maxSpeed="140.571283" guiShape="passenger" />
   <vehicle id="straightN_9" type="vehicleN_9" route="edgeN_edgeS" depart="8" departLane="2" />

   <vType id="vehicleE_10" length="5.177000" accel="3.359000" decel="3.252000" sigma="0.5" minGap="2.514811" maxSpeed="140.571283" guiShape="passenger" />
   <vehicle id="straightE_10" type="vehicleE_10" route="edgeE_edgeW" depart="8" departLane="1" />

   <vType id="vehicleW_11" length="5.577000" accel="2.937000" decel="5.467000" sigma="0.5" minGap="2.514811" maxSpeed="140.571283" guiShape="passenger" />
   <vehicle id="straightW_11" type="vehicleW_11" route="edgeW_edgeE" depart="9" departLane="1" />

   <vType id="vehicleN_12" length="5.168000" accel="3.242000" decel="3.759000" sigma="0.5" minGap="2.514811" maxSpeed="140.571283" guiShape="passenger" />
   <vehicle id="straightN_12" type="vehicleN_12" route="edgeN_edgeS" depart="10" departLane="2" />

   <vType id="vehicleE_13" length="5.368000" accel="2.644000" decel="4.568000" sigma="0.5" minGap="2.514811" maxSpeed="140.571283" guiShape="passenger" />
   <vehicle id="straightE_13" type="vehicleE_13" route="edgeE_edgeW" depart="11" departLane="1" />

   <vType id="vehicleN_14" length="4.816000" accel="3.254000" decel="4.274000" sigma="0.5" minGap="2.514811" maxSpeed="140.571283" guiShape="passenger" />
   <vehicle id="straightN_14" type="vehicleN_14" route="edgeN_edgeS" depart="12" departLane="1" />

   <vType id="vehicleE_15" length="5.559000" accel="3.290000" decel="3.487000" sigma="0.5" minGap="2.514811" maxSpeed="140.571283" guiShape="passenger" />
   <vehicle id="straightE_15" type="vehicleE_15" route="edgeE_edgeW" depart="12" departLane="1" />

   <vType id="vehicleW_16" length="4.033000" accel="3.231000" decel="4.912000" sigma="0.5" minGap="2.514811" maxSpeed="140.571283" guiShape="passenger" />
   <vehicle id="straightW_16" type="vehicleW_16" route="edgeW_edgeE" depart="13" departLane="1" />

   <vType id="vehicleS_17" length="4.928000" accel="3.490000" decel="5.353000" sigma="0.5" minGap="2.514811" maxSpeed="140.571283" guiShape="passenger" />
   <vehicle id="straightS_17" type="vehicleS_17" route="edgeS_edgeN" depart="14" departLane="1" />

   <vType id="vehicleN_18" length="3.953000" accel="2.969000" decel="4.431000" sigma="0.5" minGap="2.514811" maxSpeed="140.571283" guiShape="passenger" />
   <vehicle id="leftN_18" type="vehicleN_18" route="edgeN_edgeE" depart="16" departLane="2" />

   <vType id="vehicleS_19" length="4.299000" accel="3.415000" decel="5.165000" sigma="0.5" minGap="2.514811" maxSpeed="140.571283" guiShape="passenger" />
   <vehicle id="straightS_19" type="vehicleS_19" route="edgeS_edgeN" depart="16" departLane="1" />

   <vType id="vehicleN_20" length="4.508000" accel="2.788000" decel="5.177000" sigma="0.5" minGap="2.514811" maxSpeed="140.571283" guiShape="passenger" />
   <vehicle id="straightN_20" type="vehicleN_20" route="edgeN_edgeS" depart="19" departLane="1" />

   <vType id="vehicleE_21" length="4.483000" accel="3.360000" decel="3.512000" sigma="0.5" minGap="2.514811" maxSpeed="140.571283" guiShape="passenger" />
   <vehicle id="straightE_21" type="vehicleE_21" route="edgeE_edgeW" depart="19" departLane="1" />

   <vType id="vehicleS_22" length="4.688000" accel="3.376000" decel="3.043000" sigma="0.5" minGap="2.514811" maxSpeed="140.571283" guiShape="passenger" />
   <vehicle id="leftS_22" type="vehicleS_22" route="edgeS_edgeW" depart="20" departLane="2" />

   <vType id="vehicleW_23" length="5.310000" accel="3.496000" decel="5.346000" sigma="0.5" minGap="2.514811" maxSpeed="140.571283" guiShape="passenger" />
   <vehicle id="uturnW_23" type="vehicleW_23" route="edgeW_edgeW" depart="20" departLane="2" />

   <vType id="vehicleN_24" length="4.274000" accel="2.775000" decel="2.997000" sigma="0.5" minGap="2.514811" maxSpeed="140.571283" guiShape="passenger" />
   <vehicle id="straightN_24" type="vehicleN_24" route="edgeN_edgeS" depart="21" departLane="2" />

   <vType id="vehicleS_25" length="5.461000" accel="3.263000" decel="3.611000" sigma="0.5" minGap="2.514811" maxSpeed="140.571283" guiShape="passenger" />
   <vehicle id="straightS_25" type="vehicleS_25" route="edgeS_edgeN" depart="21" departLane="2" />

   <vType id="vehicleW_26" length="5.531000" accel="3.001000" decel="4.306000" sigma="0.5" minGap="2.514811" maxSpeed="140.571283" guiShape="passenger" />
   <vehicle id="leftW_26" type="vehicleW_26" route="edgeW_edgeN" depart="21" departLane="2" />

   <vType id="vehicleE_27" length="4.755000" accel="3.348000" decel="3.265000" sigma="0.5" minGap="2.514811" maxSpeed="140.571283" guiShape="passenger" />
   <vehicle id="straightE_27" type="vehicleE_27" route="edgeE_edgeW" depart="21" departLane="1" />

   <vType id="vehicleS_28" length="5.353000" accel="2.778000" decel="5.387000" sigma="0.5" minGap="2.514811" maxSpeed="140.571283" guiShape="passenger" />
   <vehicle id="leftS_28" type="vehicleS_28" route="edgeS_edgeW" depart="22" departLane="2" />

   <vType id="vehicleE_29" length="5.013000" accel="2.983000" decel="3.695000" sigma="0.5" minGap="2.514811" maxSpeed="140.571283" guiShape="passenger" />
   <vehicle id="leftE_29" type="vehicleE_29" route="edgeE_edgeS" depart="22" departLane="2" />

   <vType id="vehicleN_30" length="4.315000" accel="2.768000" decel="4.657000" sigma="0.5" minGap="2.514811" maxSpeed="140.571283" guiShape="passenger" />
   <vehicle id="straightN_30" type="vehicleN_30" route="edgeN_edgeS" depart="23" departLane="2" />

   <vType id="vehicleN_31" length="4.855000" accel="2.392000" decel="4.294000" sigma="0.5" minGap="2.514811" maxSpeed="140.571283" guiShape="passenger" />
   <vehicle id="straightN_31" type="vehicleN_31" route="edgeN_edgeS" depart="24" departLane="2" />

   <vType id="vehicleS_32" length="4.032000" accel="2.576000" decel="3.610000" sigma="0.5" minGap="2.514811" maxSpeed="140.571283" guiShape="passenger" />
   <vehicle id="straightS_32" type="vehicleS_32" route="edgeS_edgeN" depart="24" departLane="2" />

   <vType id="vehicleE_33" length="4.416000" accel="3.108000" decel="5.380000" sigma="0.5" minGap="2.514811" maxSpeed="140.571283" guiShape="passenger" />
   <vehicle id="straightE_33" type="vehicleE_33" route="edgeE_edgeW" depart="25" departLane="1" />

   <vType id="vehicleN_34" length="5.154000" accel="2.463000" decel="3.601000" sigma="0.5" minGap="2.514811" maxSpeed="140.571283" guiShape="passenger" />
   <vehicle id="straightN_34" type="vehicleN_34" route="edgeN_edgeS" depart="26" departLane="1" />

   <vType id="vehicleW_35" length="4.357000" accel="2.886000" decel="5.289000" sigma="0.5" minGap="2.514811" maxSpeed="140.571283" guiShape="passenger" />
   <vehicle id="straightW_35" type="vehicleW_35" route="edgeW_edgeE" depart="26" departLane="1" />

   <vType id="vehicleE_36" length="4.378000" accel="2.270000" decel="4.926000" sigma="0.5" minGap="2.514811" maxSpeed="140.571283" guiShape="passenger" />
   <vehicle id="straightE_36" type="vehicleE_36" route="edgeE_edgeW" depart="26" departLane="1" />

   <vType id="vehicleN_37" length="5.093000" accel="2.978000" decel="3.141000" sigma="0.5" minGap="2.514811" maxSpeed="140.571283" guiShape="passenger" />
   <vehicle id="straightN_37" type="vehicleN_37" route="edgeN_edgeS" depart="27" departLane="1" />

   <vType id="vehicleN_38" length="4.431000" accel="3.407000" decel="4.994000" sigma="0.5" minGap="2.514811" maxSpeed="140.571283" guiShape="passenger" />
   <vehicle id="leftN_38" type="vehicleN_38" route="edgeN_edgeE" depart="28" departLane="2" />

   <vType id="vehicleW_39" length="4.089000" accel="3.256000" decel="5.232000" sigma="0.5" minGap="2.514811" maxSpeed="140.571283" guiShape="passenger" />
   <vehicle id="leftW_39" type="vehicleW_39" route="edgeW_edgeN" depart="28" departLane="2" />

   <vType id="vehicleE_40" length="4.212000" accel="2.789000" decel="3.324000" sigma="0.5" minGap="2.514811" maxSpeed="140.571283" guiShape="passenger" />
   <vehicle id="straightE_40" type="vehicleE_40" route="edgeE_edgeW" depart="29" departLane="1" />

   <vType id="vehicleN_41" length="5.086000" accel="2.751000" decel="2.943000" sigma="0.5" minGap="2.514811" maxSpeed="140.571283" guiShape="passenger" />
   <vehicle id="leftN_41" type="vehicleN_41" route="edgeN_edgeE" depart="31" departLane="2" />

   <vType id="vehicleE_42" length="4.464000" accel="3.363000" decel="5.456000" sigma="0.5" minGap="2.514811" maxSpeed="140.571283" guiShape="passenger" />
   <vehicle id="leftE_42" type="vehicleE_42" route="edgeE_edgeS" depart="32" departLane="2" />

   <vType id="vehicleS_43" length="4.353000" accel="3.003000" decel="5.501000" sigma="0.5" minGap="2.514811" maxSpeed="140.571283" guiShape="passenger" />
   <vehicle id="straightS_43" type="vehicleS_43" route="edgeS_edgeN" depart="34" departLane="1" />

   <vType id="vehicleW_44" length="5.131000" accel="2.664000" decel="4.479000" sigma="0.5" minGap="2.514811" maxSpeed="140.571283" guiShape="passenger" />
   <vehicle id="straightW_44" type="vehicleW_44" route="edgeW_edgeE" depart="34" departLane="1" />

   <vType id="vehicleE_45" length="4.815000" accel="3.179000" decel="4.847000" sigma="0.5" minGap="2.514811" maxSpeed="140.571283" guiShape="passenger" />
   <vehicle id="straightE_45" type="vehicleE_45" route="edgeE_edgeW" depart="35" departLane="1" />

   <vType id="vehicleS_46" length="4.468000" accel="2.664000" decel="5.134000" sigma="0.5" minGap="2.514811" maxSpeed="140.571283" guiShape="passenger" />
   <vehicle id="straightS_46" type="vehicleS_46" route="edgeS_edgeN" depart="36" departLane="2" />

   <vType id="vehicleE_47" length="4.549000" accel="3.216000" decel="3.310000" sigma="0.5" minGap="2.514811" maxSpeed="140.571283" guiShape="passenger" />
   <vehicle id="straightE_47" type="vehicleE_47" route="edgeE_edgeW" depart="37" departLane="1" />

   <vType id="vehicleE_48" length="4.928000" accel="2.675000" decel="4.034000" sigma="0.5" minGap="2.514811" maxSpeed="140.571283" guiShape="passenger" />
   <vehicle id="straightE_48" type="vehicleE_48" route="edgeE_edgeW" depart="38" departLane="1" />

   <vType id="vehicleN_49" length="4.309000" accel="2.660000" decel="5.022000" sigma="0.5" minGap="2.514811" maxSpeed="140.571283" guiShape="passenger" />
   <vehicle id="straightN_49" type="vehicleN_49" route="edgeN_edgeS" depart="41" departLane="1" />

   <vType id="vehicleS_50" length="4.709000" accel="3.345000" decel="3.036000" sigma="0.5" minGap="2.514811" maxSpeed="140.571283" guiShape="passenger" />
   <vehicle id="straightS_50" type="vehicleS_50" route="edgeS_edgeN" depart="41" departLane="2" />

   <vType id="vehicleE_51" length="5.405000" accel="3.358000" decel="5.235000" sigma="0.5" minGap="2.514811" maxSpeed="140.571283" guiShape="passenger" />
   <vehicle id="straightE_51" type="vehicleE_51" route="edgeE_edgeW" depart="42" departLane="1" />

   <vType id="vehicleN_52" length="5.077000" accel="2.855000" decel="4.347000" sigma="0.5" minGap="2.514811" maxSpeed="140.571283" guiShape="passenger" />
   <vehicle id="straightN_52" type="vehicleN_52" route="edgeN_edgeS" depart="43" departLane="1" />

   <vType id="vehicleN_53" length="4.980000" accel="3.238000" decel="4.250000" sigma="0.5" minGap="2.514811" maxSpeed="140.571283" guiShape="passenger" />
   <vehicle id="straightN_53" type="vehicleN_53" route="edgeN_edgeS" depart="47" departLane="1" />

   <vType id="vehicleW_54" length="4.370000" accel="2.671000" decel="4.301000" sigma="0.5" minGap="2.514811" maxSpeed="140.571283" guiShape="passenger" />
   <vehicle id="leftW_54" type="vehicleW_54" route="edgeW_edgeN" depart="47" departLane="1" />

   <vType id="vehicleE_55" length="4.172000" accel="2.537000" decel="3.962000" sigma="0.5" minGap="2.514811" maxSpeed="140.571283" guiShape="passenger" />
   <vehicle id="straightE_55" type="vehicleE_55" route="edgeE_edgeW" depart="47" departLane="1" />

   <vType id="vehicleW_56" length="5.425000" accel="3.007000" decel="4.721000" sigma="0.5" minGap="2.514811" maxSpeed="140.571283" guiShape="passenger" />
   <vehicle id="straightW_56" type="vehicleW_56" route="edgeW_edgeE" depart="48" departLane="1" />

   <vType id="vehicleE_57" length="5.362000" accel="2.496000" decel="3.543000" sigma="0.5" minGap="2.514811" maxSpeed="140.571283" guiShape="passenger" />
   <vehicle id="straightE_57" type="vehicleE_57" route="edgeE_edgeW" depart="54" departLane="1" />

   <vType id="vehicleN_58" length="5.186000" accel="2.747000" decel="4.874000" sigma="0.5" minGap="2.514811" maxSpeed="140.571283" guiShape="passenger" />
   <vehicle id="straightN_58" type="vehicleN_58" route="edgeN_edgeS" depart="55" departLane="2" />

   <vType id="vehicleW_59" length="4.816000" accel="3.535000" decel="3.786000" sigma="0.5" minGap="2.514811" maxSpeed="140.571283" guiShape="passenger" />
   <vehicle id="leftW_59" type="vehicleW_59" route="edgeW_edgeN" depart="55" departLane="1" />

   <vType id="vehicleE_60" length="4.171000" accel="2.426000" decel="4.651000" sigma="0.5" minGap="2.514811" maxSpeed="140.571283" guiShape="passenger" />
   <vehicle id="leftE_60" type="vehicleE_60" route="edgeE_edgeS" depart="56" departLane="1" />

   <vType id="vehicleE_61" length="4.882000" accel="3.445000" decel="4.397000" sigma="0.5" minGap="2.514811" maxSpeed="140.571283" guiShape="passenger" />
   <vehicle id="leftE_61" type="vehicleE_61" route="edgeE_edgeS" depart="58" departLane="2" />

   <vType id="vehicleW_62" length="4.962000" accel="2.395000" decel="4.930000" sigma="0.5" minGap="2.514811" maxSpeed="140.571283" guiShape="passenger" />
   <vehicle id="straightW_62" type="vehicleW_62" route="edgeW_edgeE" depart="59" departLane="1" />

   <vType id="vehicleS_63" length="5.020000" accel="2.353000" decel="4.591000" sigma="0.5" minGap="2.514811" maxSpeed="140.571283" guiShape="passenger" />
   <vehicle id="straightS_63" type="vehicleS_63" route="edgeS_edgeN" depart="60" departLane="1" />

   <vType id="vehicleN_64" length="4.976000" accel="3.318000" decel="4.753000" sigma="0.5" minGap="2.514811" maxSpeed="140.571283" guiShape="passenger" />
   <vehicle id="uturnN_64" type="vehicleN_64" route="edgeN_edgeN" depart="61" departLane="2" />

   <vType id="vehicleN_65" length="4.814000" accel="2.879000" decel="4.018000" sigma="0.5" minGap="2.514811" maxSpeed="140.571283" guiShape="passenger" />
   <vehicle id="straightN_65" type="vehicleN_65" route="edgeN_edgeS" depart="62" departLane="2" />

   <vType id="vehicleN_66" length="5.168000" accel="2.989000" decel="4.647000" sigma="0.5" minGap="2.514811" maxSpeed="140.571283" guiShape="passenger" />
   <vehicle id="straightN_66" type="vehicleN_66" route="edgeN_edgeS" depart="63" departLane="2" />

   <vType id="vehicleS_67" length="4.220000" accel="2.535000" decel="4.998000" sigma="0.5" minGap="2.514811" maxSpeed="140.571283" guiShape="passenger" />
   <vehicle id="straightS_67" type="vehicleS_67" route="edgeS_edgeN" depart="63" departLane="2" />

   <vType id="vehicleE_68" length="4.595000" accel="2.971000" decel="3.489000" sigma="0.5" minGap="2.514811" maxSpeed="140.571283" guiShape="passenger" />
   <vehicle id="leftE_68" type="vehicleE_68" route="edgeE_edgeS" depart="64" departLane="2" />

   <vType id="vehicleE_69" length="5.070000" accel="2.654000" decel="4.413000" sigma="0.5" minGap="2.514811" maxSpeed="140.571283" guiShape="passenger" />
   <vehicle id="leftE_69" type="vehicleE_69" route="edgeE_edgeS" depart="65" departLane="2" />

   <vType id="vehicleE_70" length="4.443000" accel="3.209000" decel="5.412000" sigma="0.5" minGap="2.514811" maxSpeed="140.571283" guiShape="passenger" />
   <vehicle id="straightE_70" type="vehicleE_70" route="edgeE_edgeW" depart="67" departLane="1" />

   <vType id="vehicleN_71" length="4.378000" accel="3.014000" decel="4.896000" sigma="0.5" minGap="2.514811" maxSpeed="140.571283" guiShape="passenger" />
   <vehicle id="straightN_71" type="vehicleN_71" route="edgeN_edgeS" depart="68" departLane="2" />

   <vType id="vehicleE_72" length="4.008000" accel="2.636000" decel="5.394000" sigma="0.5" minGap="2.514811" maxSpeed="140.571283" guiShape="passenger" />
   <vehicle id="leftE_72" type="vehicleE_72" route="edgeE_edgeS" depart="69" departLane="2" />

   <vType id="vehicleN_73" length="4.391000" accel="2.873000" decel="3.761000" sigma="0.5" minGap="2.514811" maxSpeed="140.571283" guiShape="passenger" />
   <vehicle id="leftN_73" type="vehicleN_73" route="edgeN_edgeE" depart="70" departLane="2" />

   <vType id="vehicleE_74" length="4.737000" accel="2.998000" decel="4.697000" sigma="0.5" minGap="2.514811" maxSpeed="140.571283" guiShape="passenger" />
   <vehicle id="leftE_74" type="vehicleE_74" route="edgeE_edgeS" depart="70" departLane="1" />

   <vType id="vehicleN_75" length="4.424000" accel="3.528000" decel="3.159000" sigma="0.5" minGap="2.514811" maxSpeed="140.571283" guiShape="passenger" />
   <vehicle id="straightN_75" type="vehicleN_75" route="edgeN_edgeS" depart="71" departLane="2" />

   <vType id="vehicleE_76" length="4.668000" accel="2.828000" decel="5.167000" sigma="0.5" minGap="2.514811" maxSpeed="140.571283" guiShape="passenger" />
   <vehicle id="straightE_76" type="vehicleE_76" route="edgeE_edgeW" depart="71" departLane="1" />

   <vType id="vehicleW_77" length="4.179000" accel="2.486000" decel="3.042000" sigma="0.5" minGap="2.514811" maxSpeed="140.571283" guiShape="passenger" />
   <vehicle id="straightW_77" type="vehicleW_77" route="edgeW_edgeE" depart="73" departLane="1" />

   <vType id="vehicleW_78" length="4.389000" accel="3.357000" decel="3.031000" sigma="0.5" minGap="2.514811" maxSpeed="140.571283" guiShape="passenger" />
   <vehicle id="leftW_78" type="vehicleW_78" route="edgeW_edgeN" depart="74" departLane="1" />

   <vType id="vehicleS_79" length="4.430000" accel="3.217000" decel="4.379000" sigma="0.5" minGap="2.514811" maxSpeed="140.571283" guiShape="passenger" />
   <vehicle id="leftS_79" type="vehicleS_79" route="edgeS_edgeW" depart="77" departLane="2" />

   <vType id="vehicleS_80" length="5.041000" accel="3.358000" decel="4.428000" sigma="0.5" minGap="2.514811" maxSpeed="140.571283" guiShape="passenger" />
   <vehicle id="straightS_80" type="vehicleS_80" route="edgeS_edgeN" depart="80" departLane="1" />

   <vType id="vehicleN_81" length="5.177000" accel="2.863000" decel="4.602000" sigma="0.5" minGap="2.514811" maxSpeed="140.571283" guiShape="passenger" />
   <vehicle id="leftN_81" type="vehicleN_81" route="edgeN_edgeE" depart="81" departLane="2" />

   <vType id="vehicleS_82" length="4.473000" accel="3.117000" decel="5.160000" sigma="0.5" minGap="2.514811" maxSpeed="140.571283" guiShape="passenger" />
   <vehicle id="straightS_82" type="vehicleS_82" route="edgeS_edgeN" depart="82" departLane="2" />

   <vType id="vehicleE_83" length="4.338000" accel="2.413000" decel="4.930000" sigma="0.5" minGap="2.514811" maxSpeed="140.571283" guiShape="passenger" />
   <vehicle id="leftE_83" type="vehicleE_83" route="edgeE_edgeS" depart="83" departLane="1" />

   <vType id="vehicleE_84" length="5.178000" accel="3.060000" decel="4.896000" sigma="0.5" minGap="2.514811" maxSpeed="140.571283" guiShape="passenger" />
   <vehicle id="straightE_84" type="vehicleE_84" route="edgeE_edgeW" depart="84" departLane="1" />

   <vType id="vehicleN_85" length="4.397000" accel="3.384000" decel="4.151000" sigma="0.5" minGap="2.514811" maxSpeed="140.571283" guiShape="passenger" />
   <vehicle id="leftN_85" type="vehicleN_85" route="edgeN_edgeE" depart="85" departLane="2" />

   <vType id="vehicleE_86" length="4.835000" accel="2.967000" decel="3.091000" sigma="0.5" minGap="2.514811" maxSpeed="140.571283" guiShape="passenger" />
   <vehicle id="leftE_86" type="vehicleE_86" route="edgeE_edgeS" depart="85" departLane="1" />

   <vType id="vehicleS_87" length="4.748000" accel="3.176000" decel="4.216000" sigma="0.5" minGap="2.514811" maxSpeed="140.571283" guiShape="passenger" />
   <vehicle id="straightS_87" type="vehicleS_87" route="edgeS_edgeN" depart="86" departLane="2" />

   <vType id="vehicleW_88" length="4.916000" accel="3.213000" decel="3.208000" sigma="0.5" minGap="2.514811" maxSpeed="140.571283" guiShape="passenger" />
   <vehicle id="leftW_88" type="vehicleW_88" route="edgeW_edgeN" depart="87" departLane="1" />

   <vType id="vehicleW_89" length="4.492000" accel="2.966000" decel="4.310000" sigma="0.5" minGap="2.514811" maxSpeed="140.571283" guiShape="passenger" />
   <vehicle id="straightW_89" type="vehicleW_89" route="edgeW_edgeE" depart="90" departLane="1" />

   <vType id="vehicleS_90" length="4.128000" accel="3.491000" decel="3.737000" sigma="0.5" minGap="2.514811" maxSpeed="140.571283" guiShape="passenger" />
   <vehicle id="uturnS_90" type="vehicleS_90" route="edgeS_edgeS" depart="94" departLane="2" />

   <vType id="vehicleW_91" length="4.084000" accel="3.422000" decel="2.880000" sigma="0.5" minGap="2.514811" maxSpeed="140.571283" guiShape="passenger" />
   <vehicle id="straightW_91" type="vehicleW_91" route="edgeW_edgeE" depart="94" departLane="1" />

   <vType id="vehicleS_92" length="5.532000" accel="2.695000" decel="4.714000" sigma="0.5" minGap="2.514811" maxSpeed="140.571283" guiShape="passenger" />
   <vehicle id="straightS_92" type="vehicleS_92" route="edgeS_edgeN" depart="95" departLane="1" />

   <vType id="vehicleW_93" length="4.969000" accel="3.435000" decel="5.538000" sigma="0.5" minGap="2.514811" maxSpeed="140.571283" guiShape="passenger" />
   <vehicle id="leftW_93" type="vehicleW_93" route="edgeW_edgeN" depart="97" departLane="1" />

   <vType id="vehicleN_94" length="5.371000" accel="2.829000" decel="4.717000" sigma="0.5" minGap="2.514811" maxSpeed="140.571283" guiShape="passenger" />
   <vehicle id="straightN_94" type="vehicleN_94" route="edgeN_edgeS" depart="98" departLane="1" />

   <vType id="vehicleS_95" length="4.406000" accel="2.741000" decel="3.233000" sigma="0.5" minGap="2.514811" maxSpeed="140.571283" guiShape="passenger" />
   <vehicle id="straightS_95" type="vehicleS_95" route="edgeS_edgeN" depart="98" departLane="2" />

   <vType id="vehicleN_96" length="5.368000" accel="3.052000" decel="3.490000" sigma="0.5" minGap="2.514811" maxSpeed="140.571283" guiShape="passenger" />
   <vehicle id="leftN_96" type="vehicleN_96" route="edgeN_edgeE" depart="99" departLane="2" />

   <vType id="vehicleS_97" length="5.563000" accel="2.645000" decel="5.443000" sigma="0.5" minGap="2.514811" maxSpeed="140.571283" guiShape="passenger" />
   <vehicle id="straightS_97" type="vehicleS_97" route="edgeS_edgeN" depart="101" departLane="2" />

   <vType id="vehicleW_98" length="4.516000" accel="2.641000" decel="4.731000" sigma="0.5" minGap="2.514811" maxSpeed="140.571283" guiShape="passenger" />
   <vehicle id="straightW_98" type="vehicleW_98" route="edgeW_edgeE" depart="102" departLane="1" />

   <vType id="vehicleS_99" length="4.745000" accel="3.414000" decel="3.613000" sigma="0.5" minGap="2.514811" maxSpeed="140.571283" guiShape="passenger" />
   <vehicle id="straightS_99" type="vehicleS_99" route="edgeS_edgeN" depart="104" departLane="1" />

   <vType id="vehicleS_100" length="5.163000" accel="2.488000" decel="3.196000" sigma="0.5" minGap="2.514811" maxSpeed="140.571283" guiShape="passenger" />
   <vehicle id="straightS_100" type="vehicleS_100" route="edgeS_edgeN" depart="108" departLane="2" />

   <vType id="vehicleE_101" length="4.152000" accel="3.493000" decel="5.167000" sigma="0.5" minGap="2.514811" maxSpeed="140.571283" guiShape="passenger" />
   <vehicle id="straightE_101" type="vehicleE_101" route="edgeE_edgeW" depart="110" departLane="1" />

   <vType id="vehicleN_102" length="4.675000" accel="3.120000" decel="4.658000" sigma="0.5" minGap="2.514811" maxSpeed="140.571283" guiShape="passenger" />
   <vehicle id="straightN_102" type="vehicleN_102" route="edgeN_edgeS" depart="112" departLane="2" />

   <vType id="vehicleE_103" length="3.959000" accel="3.388000" decel="4.358000" sigma="0.5" minGap="2.514811" maxSpeed="140.571283" guiShape="passenger" />
   <vehicle id="leftE_103" type="vehicleE_103" route="edgeE_edgeS" depart="112" departLane="1" />

   <vType id="vehicleS_104" length="3.980000" accel="3.530000" decel="3.153000" sigma="0.5" minGap="2.514811" maxSpeed="140.571283" guiShape="passenger" />
   <vehicle id="leftS_104" type="vehicleS_104" route="edgeS_edgeW" depart="114" departLane="2" />

   <vType id="vehicleE_105" length="5.035000" accel="3.209000" decel="5.399000" sigma="0.5" minGap="2.514811" maxSpeed="140.571283" guiShape="passenger" />
   <vehicle id="straightE_105" type="vehicleE_105" route="edgeE_edgeW" depart="114" departLane="1" />

   <vType id="vehicleE_106" length="5.552000" accel="2.732000" decel="5.279000" sigma="0.5" minGap="2.514811" maxSpeed="140.571283" guiShape="passenger" />
   <vehicle id="straightE_106" type="vehicleE_106" route="edgeE_edgeW" depart="117" departLane="1" />

   <vType id="vehicleN_107" length="5.531000" accel="3.471000" decel="5.070000" sigma="0.5" minGap="2.514811" maxSpeed="140.571283" guiShape="passenger" />
   <vehicle id="straightN_107" type="vehicleN_107" route="edgeN_edgeS" depart="118" departLane="1" />

   <vType id="vehicleN_108" length="4.323000" accel="2.425000" decel="4.367000" sigma="0.5" minGap="2.514811" maxSpeed="140.571283" guiShape="passenger" />
   <vehicle id="straightN_108" type="vehicleN_108" route="edgeN_edgeS" depart="119" departLane="1" />
