<?xml version="1.0" encoding="UTF-8"?>

<!-- generated on 2021-10-23 04:06:18 by Eclipse SUMO netconvert Version 1.10.0
<configuration xmlns:xsi="http://www.w3.org/2001/XMLSchema-instance" xsi:noNamespaceSchemaLocation="http://sumo.dlr.de/xsd/netconvertConfiguration.xsd">

    <input>
        <node-files value="data6/cross.nod.xml"/>
        <edge-files value="data6/cross.edg.xml"/>
        <connection-files value="data6/cross.con.xml"/>
    </input>

    <output>
        <output-file value="data6/cross.net.xml"/>
    </output>

    <junctions>
        <no-turnarounds.except-turnlane value="true"/>
    </junctions>

    <report>
        <aggregate-warnings value="5"/>
    </report>

</configuration>
-->

<net version="1.9" junctionCornerDetail="5" limitTurnSpeed="5.50" xmlns:xsi="http://www.w3.org/2001/XMLSchema-instance" xsi:noNamespaceSchemaLocation="http://sumo.dlr.de/xsd/net_file.xsd">

    <location netOffset="500.00,400.00" convBoundary="0.00,0.00,1200.00,900.00" origBoundary="-500.00,-400.00,700.00,500.00" projParameter="!"/>

    <edge id=":juncE_0" function="internal">
        <lane id=":juncE_0_0" index="0" disallow="pedestrian" speed="3.65" length="4.67" shape="1200.00,398.40 1201.20,399.20 1201.60,400.00 1201.20,400.80 1200.00,401.60"/>
    </edge>
    <edge id=":juncE_w0" function="walkingarea">
        <lane id=":juncE_w0_0" index="0" allow="pedestrian" speed="1.00" length="22.40" width="3.20" shape="1200.00,409.60 1200.00,412.80 1200.00,387.20 1200.00,390.40"/>
    </edge>
    <edge id=":juncMain_0" function="internal">
        <lane id=":juncMain_0_0" index="0" disallow="pedestrian" speed="6.86" length="5.34" shape="482.40,414.30 482.01,411.54 480.82,409.57 480.60,409.44"/>
        <lane id=":juncMain_0_1" index="1" disallow="pedestrian" speed="7.64" length="7.67" shape="482.40,414.30 482.01,410.14 480.82,407.18 480.60,406.97"/>
        <lane id=":juncMain_0_2" index="2" disallow="pedestrian" speed="7.64" length="8.30" shape="485.60,414.30 485.01,411.54 483.23,409.57 480.60,408.53"/>
        <lane id=":juncMain_0_3" index="3" disallow="pedestrian" speed="8.29" length="10.72" shape="485.60,414.30 485.01,410.14 483.23,407.18 480.60,405.60"/>
    </edge>
    <edge id=":juncMain_4" function="internal">
        <lane id=":juncMain_4_0" index="0" disallow="pedestrian" speed="24.50" length="28.60" shape="485.60,414.30 485.60,385.70"/>
        <lane id=":juncMain_4_1" index="1" disallow="pedestrian" speed="24.50" length="28.60" shape="488.80,414.30 488.80,385.70"/>
        <lane id=":juncMain_4_2" index="2" disallow="pedestrian" speed="24.50" length="28.60" shape="492.00,414.30 492.00,385.70"/>
        <lane id=":juncMain_4_3" index="3" disallow="pedestrian" speed="24.50" length="28.60" shape="495.20,414.30 495.20,385.70"/>
    </edge>
    <edge id=":juncMain_8" function="internal">
        <lane id=":juncMain_8_0" index="0" disallow="pedestrian" speed="12.57" length="15.38" shape="495.20,414.30 496.99,407.34 502.38,402.38 503.20,402.10"/>
        <lane id=":juncMain_8_1" index="1" disallow="pedestrian" speed="12.09" length="11.76" shape="498.40,414.30 499.99,407.34 503.20,404.01"/>
    </edge>
    <edge id=":juncMain_10" function="internal">
        <lane id=":juncMain_10_0" index="0" disallow="pedestrian" speed="3.65" length="2.34" shape="498.40,414.30 499.20,413.10 500.00,412.70"/>
    </edge>
    <edge id=":juncMain_34" function="internal">
        <lane id=":juncMain_34_0" index="0" disallow="pedestrian" speed="6.86" length="4.82" shape="480.60,409.44 478.86,408.39 476.10,408.00"/>
    </edge>
    <edge id=":juncMain_35" function="internal">
        <lane id=":juncMain_35_0" index="0" disallow="pedestrian" speed="7.64" length="5.17" shape="480.60,406.97 478.86,405.39 476.10,404.80"/>
    </edge>
    <edge id=":juncMain_36" function="internal">
        <lane id=":juncMain_36_0" index="0" disallow="pedestrian" speed="7.64" length="4.54" shape="480.60,408.53 480.26,408.39 476.10,408.00"/>
    </edge>
    <edge id=":juncMain_37" function="internal">
        <lane id=":juncMain_37_0" index="0" disallow="pedestrian" speed="8.29" length="4.60" shape="480.60,405.60 480.26,405.39 476.10,404.80"/>
    </edge>
    <edge id=":juncMain_38" function="internal">
        <lane id=":juncMain_38_0" index="0" disallow="pedestrian" speed="12.57" length="21.18" shape="503.20,402.10 511.34,399.39 523.90,398.40"/>
    </edge>
    <edge id=":juncMain_39" function="internal">
        <lane id=":juncMain_39_0" index="0" disallow="pedestrian" speed="12.09" length="21.98" shape="503.20,404.01 504.77,402.38 512.74,399.39 523.90,398.40"/>
    </edge>
    <edge id=":juncMain_40" function="internal">
        <lane id=":juncMain_40_0" index="0" disallow="pedestrian" speed="3.65" length="2.34" shape="500.00,412.70 500.80,413.10 501.60,414.30"/>
    </edge>
    <edge id=":juncMain_11" function="internal">
        <lane id=":juncMain_11_0" index="0" disallow="pedestrian" speed="6.86" length="5.34" shape="523.90,408.00 521.14,408.39 519.17,409.57 519.04,409.80"/>
        <lane id=":juncMain_11_1" index="1" disallow="pedestrian" speed="7.64" length="7.67" shape="523.90,408.00 519.74,408.39 516.77,409.57 516.57,409.80"/>
    </edge>
    <edge id=":juncMain_13" function="internal">
        <lane id=":juncMain_13_0" index="0" disallow="pedestrian" speed="15.24" length="47.80" shape="523.90,404.80 476.10,404.80"/>
    </edge>
    <edge id=":juncMain_14" function="internal">
        <lane id=":juncMain_14_0" index="0" disallow="pedestrian" speed="12.57" length="23.26" shape="523.90,401.60 511.34,400.61 502.38,397.63 501.48,396.80"/>
        <lane id=":juncMain_14_1" index="1" disallow="pedestrian" speed="12.09" length="20.85" shape="523.90,401.60 512.74,400.61 504.77,397.63 503.98,396.80"/>
    </edge>
    <edge id=":juncMain_16" function="internal">
        <lane id=":juncMain_16_0" index="0" disallow="pedestrian" speed="3.65" length="2.34" shape="523.90,401.60 522.70,400.80 522.30,400.00"/>
    </edge>
    <edge id=":juncMain_41" function="internal">
        <lane id=":juncMain_41_0" index="0" disallow="pedestrian" speed="6.86" length="4.82" shape="519.04,409.80 517.99,411.54 517.60,414.30"/>
    </edge>
    <edge id=":juncMain_42" function="internal">
        <lane id=":juncMain_42_0" index="0" disallow="pedestrian" speed="7.64" length="5.17" shape="516.57,409.80 514.99,411.54 514.40,414.30"/>
    </edge>
    <edge id=":juncMain_43" function="internal">
        <lane id=":juncMain_43_0" index="0" disallow="pedestrian" speed="12.57" length="13.29" shape="501.48,396.80 496.99,392.66 495.20,385.70"/>
    </edge>
    <edge id=":juncMain_44" function="internal">
        <lane id=":juncMain_44_0" index="0" disallow="pedestrian" speed="12.09" length="12.89" shape="503.98,396.80 499.99,392.66 498.40,385.70"/>
    </edge>
    <edge id=":juncMain_45" function="internal">
        <lane id=":juncMain_45_0" index="0" disallow="pedestrian" speed="3.65" length="2.34" shape="522.30,400.00 522.70,399.20 523.90,398.40"/>
    </edge>
    <edge id=":juncMain_17" function="internal">
        <lane id=":juncMain_17_0" index="0" disallow="pedestrian" speed="6.86" length="5.34" shape="517.60,385.70 517.99,388.46 519.18,390.43 519.40,390.56"/>
        <lane id=":juncMain_17_1" index="1" disallow="pedestrian" speed="7.64" length="7.67" shape="517.60,385.70 517.99,389.86 519.18,392.82 519.40,393.03"/>
        <lane id=":juncMain_17_2" index="2" disallow="pedestrian" speed="7.64" length="8.30" shape="514.40,385.70 514.99,388.46 516.77,390.43 519.40,391.47"/>
        <lane id=":juncMain_17_3" index="3" disallow="pedestrian" speed="8.29" length="10.72" shape="514.40,385.70 514.99,389.86 516.77,392.82 519.40,394.40"/>
    </edge>
    <edge id=":juncMain_21" function="internal">
        <lane id=":juncMain_21_0" index="0" disallow="pedestrian" speed="24.50" length="28.60" shape="514.40,385.70 514.40,414.30"/>
        <lane id=":juncMain_21_1" index="1" disallow="pedestrian" speed="24.50" length="28.60" shape="511.20,385.70 511.20,414.30"/>
        <lane id=":juncMain_21_2" index="2" disallow="pedestrian" speed="24.50" length="28.60" shape="508.00,385.70 508.00,414.30"/>
        <lane id=":juncMain_21_3" index="3" disallow="pedestrian" speed="24.50" length="28.60" shape="504.80,385.70 504.80,414.30"/>
    </edge>
    <edge id=":juncMain_25" function="internal">
        <lane id=":juncMain_25_0" index="0" disallow="pedestrian" speed="12.57" length="15.38" shape="504.80,385.70 503.01,392.66 497.62,397.62 496.80,397.90"/>
        <lane id=":juncMain_25_1" index="1" disallow="pedestrian" speed="12.09" length="11.76" shape="501.60,385.70 500.01,392.66 496.80,395.99"/>
    </edge>
    <edge id=":juncMain_27" function="internal">
        <lane id=":juncMain_27_0" index="0" disallow="pedestrian" speed="3.65" length="2.34" shape="501.60,385.70 500.80,386.90 500.00,387.30"/>
    </edge>
    <edge id=":juncMain_46" function="internal">
        <lane id=":juncMain_46_0" index="0" disallow="pedestrian" speed="6.86" length="4.82" shape="519.40,390.56 521.14,391.61 523.90,392.00"/>
    </edge>
    <edge id=":juncMain_47" function="internal">
        <lane id=":juncMain_47_0" index="0" disallow="pedestrian" speed="7.64" length="5.17" shape="519.40,393.03 521.14,394.61 523.90,395.20"/>
    </edge>
    <edge id=":juncMain_48" function="internal">
        <lane id=":juncMain_48_0" index="0" disallow="pedestrian" speed="7.64" length="4.54" shape="519.40,391.47 519.74,391.61 523.90,392.00"/>
    </edge>
    <edge id=":juncMain_49" function="internal">
        <lane id=":juncMain_49_0" index="0" disallow="pedestrian" speed="8.29" length="4.60" shape="519.40,394.40 519.74,394.61 523.90,395.20"/>
    </edge>
    <edge id=":juncMain_50" function="internal">
        <lane id=":juncMain_50_0" index="0" disallow="pedestrian" speed="12.57" length="21.18" shape="496.80,397.90 488.66,400.61 476.10,401.60"/>
    </edge>
    <edge id=":juncMain_51" function="internal">
        <lane id=":juncMain_51_0" index="0" disallow="pedestrian" speed="12.09" length="21.98" shape="496.80,395.99 495.23,397.62 487.26,400.61 476.10,401.60"/>
    </edge>
    <edge id=":juncMain_52" function="internal">
        <lane id=":juncMain_52_0" index="0" disallow="pedestrian" speed="3.65" length="2.34" shape="500.00,387.30 499.20,386.90 498.40,385.70"/>
    </edge>
    <edge id=":juncMain_28" function="internal">
        <lane id=":juncMain_28_0" index="0" disallow="pedestrian" speed="6.86" length="5.34" shape="476.10,392.00 478.86,391.61 480.82,390.43 480.96,390.20"/>
        <lane id=":juncMain_28_1" index="1" disallow="pedestrian" speed="7.64" length="7.67" shape="476.10,392.00 480.26,391.61 483.23,390.43 483.43,390.20"/>
    </edge>
    <edge id=":juncMain_30" function="internal">
        <lane id=":juncMain_30_0" index="0" disallow="pedestrian" speed="15.24" length="47.80" shape="476.10,395.20 523.90,395.20"/>
    </edge>
    <edge id=":juncMain_31" function="internal">
        <lane id=":juncMain_31_0" index="0" disallow="pedestrian" speed="12.57" length="23.26" shape="476.10,398.40 488.66,399.39 497.62,402.37 498.52,403.20"/>
        <lane id=":juncMain_31_1" index="1" disallow="pedestrian" speed="12.09" length="20.85" shape="476.10,398.40 487.26,399.39 495.23,402.37 496.02,403.20"/>
    </edge>
    <edge id=":juncMain_33" function="internal">
        <lane id=":juncMain_33_0" index="0" disallow="pedestrian" speed="3.65" length="2.34" shape="476.10,398.40 477.30,399.20 477.70,400.00"/>
    </edge>
    <edge id=":juncMain_53" function="internal">
        <lane id=":juncMain_53_0" index="0" disallow="pedestrian" speed="6.86" length="4.82" shape="480.96,390.20 482.01,388.46 482.40,385.70"/>
    </edge>
    <edge id=":juncMain_54" function="internal">
        <lane id=":juncMain_54_0" index="0" disallow="pedestrian" speed="7.64" length="5.17" shape="483.43,390.20 485.01,388.46 485.60,385.70"/>
    </edge>
    <edge id=":juncMain_55" function="internal">
        <lane id=":juncMain_55_0" index="0" disallow="pedestrian" speed="12.57" length="13.29" shape="498.52,403.20 503.01,407.34 504.80,414.30"/>
    </edge>
    <edge id=":juncMain_56" function="internal">
        <lane id=":juncMain_56_0" index="0" disallow="pedestrian" speed="12.09" length="12.89" shape="496.02,403.20 500.01,407.34 501.60,414.30"/>
    </edge>
    <edge id=":juncMain_57" function="internal">
        <lane id=":juncMain_57_0" index="0" disallow="pedestrian" speed="3.65" length="2.34" shape="477.70,400.00 477.30,400.80 476.10,401.60"/>
    </edge>
    <edge id=":juncMain_c0" function="crossing" crossingEdges="edgeN_I edgeN_O">
        <lane id=":juncMain_c0_0" index="0" allow="pedestrian" speed="1.00" length="38.40" width="4.50" shape="519.20,412.05 480.80,412.05"/>
    </edge>
    <edge id=":juncMain_c1" function="crossing" crossingEdges="edgeE_I edgeE_O">
        <lane id=":juncMain_c1_0" index="0" allow="pedestrian" speed="1.00" length="19.20" width="4.50" shape="521.65,390.40 521.65,409.60"/>
    </edge>
    <edge id=":juncMain_c2" function="crossing" crossingEdges="edgeS_I edgeS_O">
        <lane id=":juncMain_c2_0" index="0" allow="pedestrian" speed="1.00" length="38.40" width="4.50" shape="480.80,387.95 519.20,387.95"/>
    </edge>
    <edge id=":juncMain_c3" function="crossing" crossingEdges="edgeW_I edgeW_O">
        <lane id=":juncMain_c3_0" index="0" allow="pedestrian" speed="1.00" length="19.20" width="4.50" shape="478.35,409.60 478.35,390.40"/>
    </edge>
    <edge id=":juncMain_w0" function="walkingarea">
        <lane id=":juncMain_w0_0" index="0" allow="pedestrian" speed="1.00" length="3.82" width="4.50" shape="476.10,409.60 476.10,412.80 477.60,414.30 480.80,414.30 480.67,412.86 480.28,411.69 479.62,410.77 478.71,410.12 477.54,409.73"/>
    </edge>
    <edge id=":juncMain_w1" function="walkingarea">
        <lane id=":juncMain_w1_0" index="0" allow="pedestrian" speed="1.00" length="3.82" width="4.50" shape="519.20,414.30 522.40,414.30 523.90,412.80 523.90,409.60 522.46,409.73 521.29,410.12 520.38,410.78 519.72,411.69 519.33,412.86"/>
    </edge>
    <edge id=":juncMain_w2" function="walkingarea">
        <lane id=":juncMain_w2_0" index="0" allow="pedestrian" speed="1.00" length="3.82" width="4.50" shape="523.90,390.40 523.90,387.20 522.40,385.70 519.20,385.70 519.33,387.14 519.72,388.31 520.38,389.23 521.29,389.88 522.46,390.27"/>
    </edge>
    <edge id=":juncMain_w3" function="walkingarea">
        <lane id=":juncMain_w3_0" index="0" allow="pedestrian" speed="1.00" length="3.82" width="4.50" shape="480.80,385.70 477.60,385.70 476.10,387.20 476.10,390.40 477.54,390.27 478.71,389.88 479.62,389.22 480.28,388.31 480.67,387.14"/>
    </edge>
    <edge id=":juncN_0" function="internal">
        <lane id=":juncN_0_0" index="0" disallow="pedestrian" speed="3.65" length="4.67" shape="501.60,900.00 500.80,901.20 500.00,901.60 499.20,901.20 498.40,900.00"/>
    </edge>
    <edge id=":juncN_w0" function="walkingarea">
        <lane id=":juncN_w0_0" index="0" allow="pedestrian" speed="1.00" length="41.60" width="3.20" shape="480.80,900.00 477.60,900.00 522.40,900.00 519.20,900.00"/>
    </edge>
    <edge id=":juncS_0" function="internal">
        <lane id=":juncS_0_0" index="0" disallow="pedestrian" speed="3.65" length="4.67" shape="498.40,0.00 499.20,-1.20 500.00,-1.60 500.80,-1.20 501.60,0.00"/>
    </edge>
    <edge id=":juncS_w0" function="walkingarea">
        <lane id=":juncS_w0_0" index="0" allow="pedestrian" speed="1.00" length="41.60" width="3.20" shape="519.20,0.00 522.40,0.00 477.60,0.00 480.80,0.00"/>
    </edge>
    <edge id=":juncW_0" function="internal">
        <lane id=":juncW_0_0" index="0" disallow="pedestrian" speed="3.65" length="4.67" shape="0.00,401.60 -1.20,400.80 -1.60,400.00 -1.20,399.20 0.00,398.40"/>
    </edge>
    <edge id=":juncW_w0" function="walkingarea">
        <lane id=":juncW_w0_0" index="0" allow="pedestrian" speed="1.00" length="22.40" width="3.20" shape="0.00,390.40 0.00,387.20 0.00,412.80 0.00,409.60"/>
    </edge>

    <edge id="edgeE_I" from="juncMain" to="juncE" priority="46">
        <lane id="edgeE_I_0" index="0" allow="pedestrian" speed="16.40" length="676.10" shape="523.90,388.80 1200.00,388.80"/>
        <lane id="edgeE_I_1" index="1" disallow="pedestrian" speed="16.40" length="676.10" shape="523.90,392.00 1200.00,392.00"/>
        <lane id="edgeE_I_2" index="2" disallow="pedestrian" speed="16.40" length="676.10" shape="523.90,395.20 1200.00,395.20"/>
        <lane id="edgeE_I_3" index="3" disallow="pedestrian" speed="16.40" length="676.10" shape="523.90,398.40 1200.00,398.40"/>
    </edge>
    <edge id="edgeE_O" from="juncE" to="juncMain" priority="78">
        <lane id="edgeE_O_0" index="0" allow="pedestrian" speed="14.09" length="676.10" shape="1200.00,411.20 523.90,411.20"/>
        <lane id="edgeE_O_1" index="1" disallow="pedestrian" speed="14.09" length="676.10" shape="1200.00,408.00 523.90,408.00"/>
        <lane id="edgeE_O_2" index="2" disallow="pedestrian" speed="14.09" length="676.10" shape="1200.00,404.80 523.90,404.80"/>
        <lane id="edgeE_O_3" index="3" disallow="pedestrian" speed="14.09" length="676.10" shape="1200.00,401.60 523.90,401.60"/>
    </edge>
    <edge id="edgeN_I" from="juncMain" to="juncN" priority="46">
        <lane id="edgeN_I_0" index="0" allow="pedestrian" speed="23.34" length="485.70" shape="520.80,414.30 520.80,900.00"/>
        <lane id="edgeN_I_1" index="1" disallow="pedestrian" speed="23.34" length="485.70" shape="517.60,414.30 517.60,900.00"/>
        <lane id="edgeN_I_2" index="2" disallow="pedestrian" speed="23.34" length="485.70" shape="514.40,414.30 514.40,900.00"/>
        <lane id="edgeN_I_3" index="3" disallow="pedestrian" speed="23.34" length="485.70" shape="511.20,414.30 511.20,900.00"/>
        <lane id="edgeN_I_4" index="4" disallow="pedestrian" speed="23.34" length="485.70" shape="508.00,414.30 508.00,900.00"/>
        <lane id="edgeN_I_5" index="5" disallow="pedestrian" speed="23.34" length="485.70" shape="504.80,414.30 504.80,900.00"/>
        <lane id="edgeN_I_6" index="6" disallow="pedestrian" speed="23.34" length="485.70" shape="501.60,414.30 501.60,900.00"/>
    </edge>
    <edge id="edgeN_O" from="juncN" to="juncMain" priority="78">
        <lane id="edgeN_O_0" index="0" allow="pedestrian" speed="25.66" length="485.70" shape="479.20,900.00 479.20,414.30"/>
        <lane id="edgeN_O_1" index="1" disallow="pedestrian" speed="25.66" length="485.70" shape="482.40,900.00 482.40,414.30"/>
        <lane id="edgeN_O_2" index="2" disallow="pedestrian" speed="25.66" length="485.70" shape="485.60,900.00 485.60,414.30"/>
        <lane id="edgeN_O_3" index="3" disallow="pedestrian" speed="25.66" length="485.70" shape="488.80,900.00 488.80,414.30"/>
        <lane id="edgeN_O_4" index="4" disallow="pedestrian" speed="25.66" length="485.70" shape="492.00,900.00 492.00,414.30"/>
        <lane id="edgeN_O_5" index="5" disallow="pedestrian" speed="25.66" length="485.70" shape="495.20,900.00 495.20,414.30"/>
        <lane id="edgeN_O_6" index="6" disallow="pedestrian" speed="25.66" length="485.70" shape="498.40,900.00 498.40,414.30"/>
    </edge>
    <edge id="edgeS_I" from="juncMain" to="juncS" priority="46">
        <lane id="edgeS_I_0" index="0" allow="pedestrian" speed="23.34" length="385.70" shape="479.20,385.70 479.20,0.00"/>
        <lane id="edgeS_I_1" index="1" disallow="pedestrian" speed="23.34" length="385.70" shape="482.40,385.70 482.40,0.00"/>
        <lane id="edgeS_I_2" index="2" disallow="pedestrian" speed="23.34" length="385.70" shape="485.60,385.70 485.60,0.00"/>
        <lane id="edgeS_I_3" index="3" disallow="pedestrian" speed="23.34" length="385.70" shape="488.80,385.70 488.80,0.00"/>
        <lane id="edgeS_I_4" index="4" disallow="pedestrian" speed="23.34" length="385.70" shape="492.00,385.70 492.00,0.00"/>
        <lane id="edgeS_I_5" index="5" disallow="pedestrian" speed="23.34" length="385.70" shape="495.20,385.70 495.20,0.00"/>
        <lane id="edgeS_I_6" index="6" disallow="pedestrian" speed="23.34" length="385.70" shape="498.40,385.70 498.40,0.00"/>
    </edge>
    <edge id="edgeS_O" from="juncS" to="juncMain" priority="78">
        <lane id="edgeS_O_0" index="0" allow="pedestrian" speed="25.66" length="385.70" shape="520.80,0.00 520.80,385.70"/>
        <lane id="edgeS_O_1" index="1" disallow="pedestrian" speed="25.66" length="385.70" shape="517.60,0.00 517.60,385.70"/>
        <lane id="edgeS_O_2" index="2" disallow="pedestrian" speed="25.66" length="385.70" shape="514.40,0.00 514.40,385.70"/>
        <lane id="edgeS_O_3" index="3" disallow="pedestrian" speed="25.66" length="385.70" shape="511.20,0.00 511.20,385.70"/>
        <lane id="edgeS_O_4" index="4" disallow="pedestrian" speed="25.66" length="385.70" shape="508.00,0.00 508.00,385.70"/>
        <lane id="edgeS_O_5" index="5" disallow="pedestrian" speed="25.66" length="385.70" shape="504.80,0.00 504.80,385.70"/>
        <lane id="edgeS_O_6" index="6" disallow="pedestrian" speed="25.66" length="385.70" shape="501.60,0.00 501.60,385.70"/>
    </edge>
    <edge id="edgeW_I" from="juncMain" to="juncW" priority="46">
        <lane id="edgeW_I_0" index="0" allow="pedestrian" speed="16.40" length="476.10" shape="476.10,411.20 0.00,411.20"/>
        <lane id="edgeW_I_1" index="1" disallow="pedestrian" speed="16.40" length="476.10" shape="476.10,408.00 0.00,408.00"/>
        <lane id="edgeW_I_2" index="2" disallow="pedestrian" speed="16.40" length="476.10" shape="476.10,404.80 0.00,404.80"/>
        <lane id="edgeW_I_3" index="3" disallow="pedestrian" speed="16.40" length="476.10" shape="476.10,401.60 0.00,401.60"/>
    </edge>
    <edge id="edgeW_O" from="juncW" to="juncMain" priority="78">
        <lane id="edgeW_O_0" index="0" allow="pedestrian" speed="14.09" length="476.10" shape="0.00,388.80 476.10,388.80"/>
        <lane id="edgeW_O_1" index="1" disallow="pedestrian" speed="14.09" length="476.10" shape="0.00,392.00 476.10,392.00"/>
        <lane id="edgeW_O_2" index="2" disallow="pedestrian" speed="14.09" length="476.10" shape="0.00,395.20 476.10,395.20"/>
        <lane id="edgeW_O_3" index="3" disallow="pedestrian" speed="14.09" length="476.10" shape="0.00,398.40 476.10,398.40"/>
    </edge>

    <tlLogic id="juncMain" type="static" programID="0" offset="0">
        <phase duration="22" state="ggggGGGGgrrrrrrrrggggGGGGgrrrrrrrrrGrG"/>
        <phase duration="5"  state="ggggGGGGgrrrrrrrrggggGGGGgrrrrrrrrrrrr"/>
        <phase duration="6"  state="yyyyyyyyyrrrrrrrryyyyyyyyyrrrrrrrrrrrr"/>
        <phase duration="6"  state="rrrrrrrrrGGrrrrrrrrrrrrrrrGGrrrrrrrrrr"/>
        <phase duration="6"  state="rrrrrrrrryyrrrrrrrrrrrrrrryyrrrrrrrrrr"/>
        <phase duration="22" state="rrrrrrrrrrrggGgggrrrrrrrrrrrggGgggGrGr"/>
        <phase duration="5"  state="rrrrrrrrrrrggGgggrrrrrrrrrrrggGgggrrrr"/>
        <phase duration="6"  state="rrrrrrrrrrryyygggrrrrrrrrrrryyygggrrrr"/>
        <phase duration="6"  state="rrrrrrrrrrrrrrGGGrrrrrrrrrrrrrrGGGrrrr"/>
        <phase duration="6"  state="rrrrrrrrrrrrrryyyrrrrrrrrrrrrrryyyrrrr"/>
    </tlLogic>

    <junction id="juncE" type="priority" x="1200.00" y="400.00" incLanes="edgeE_I_0 edgeE_I_1 edgeE_I_2 edgeE_I_3" intLanes=":juncE_0_0" shape="1200.00,400.00 1200.00,387.20 1200.00,400.00">
        <request index="0" response="0" foes="0" cont="0"/>
    </junction>
    <junction id="juncMain" type="traffic_light" x="500.00" y="400.00" incLanes="edgeN_O_0 edgeN_O_1 edgeN_O_2 edgeN_O_3 edgeN_O_4 edgeN_O_5 edgeN_O_6 edgeE_O_0 edgeE_O_1 edgeE_O_2 edgeE_O_3 edgeS_O_0 edgeS_O_1 edgeS_O_2 edgeS_O_3 edgeS_O_4 edgeS_O_5 edgeS_O_6 edgeW_O_0 edgeW_O_1 edgeW_O_2 edgeW_O_3 :juncMain_w1_0 :juncMain_w2_0 :juncMain_w3_0 :juncMain_w0_0" intLanes=":juncMain_34_0 :juncMain_35_0 :juncMain_36_0 :juncMain_37_0 :juncMain_4_0 :juncMain_4_1 :juncMain_4_2 :juncMain_4_3 :juncMain_38_0 :juncMain_39_0 :juncMain_40_0 :juncMain_41_0 :juncMain_42_0 :juncMain_13_0 :juncMain_43_0 :juncMain_44_0 :juncMain_45_0 :juncMain_46_0 :juncMain_47_0 :juncMain_48_0 :juncMain_49_0 :juncMain_21_0 :juncMain_21_1 :juncMain_21_2 :juncMain_21_3 :juncMain_50_0 :juncMain_51_0 :juncMain_52_0 :juncMain_53_0 :juncMain_54_0 :juncMain_30_0 :juncMain_55_0 :juncMain_56_0 :juncMain_57_0 :juncMain_c0_0 :juncMain_c1_0 :juncMain_c2_0 :juncMain_c3_0" shape="477.60,414.30 522.40,414.30 522.57,413.47 522.77,413.18 523.07,412.97 523.44,412.84 523.90,412.80 523.90,387.20 523.07,387.03 522.77,386.82 522.57,386.53 522.44,386.16 522.40,385.70 477.60,385.70 477.43,386.53 477.22,386.82 476.93,387.03 476.56,387.16 476.10,387.20 476.10,412.80 476.93,412.97 477.22,413.18 477.43,413.47 477.56,413.84">
        <request index="0"  response="10010000000000000000000000000000000000" foes="10010000000000000000000010000000000100" cont="1"/>
        <request index="1"  response="10010000000000000000000000000000000000" foes="10010000000000000000000010000000001000" cont="1"/>
        <request index="2"  response="10010000000000000000000000000000000001" foes="10010000000000000000000010000000000001" cont="1"/>
        <request index="3"  response="10010000000000000000000000000000000010" foes="10010000000000000000000010000000000010" cont="1"/>
        <request index="4"  response="01010110110000000000001100000000000000" foes="01010111110110000000001110000000000000" cont="0"/>
        <request index="5"  response="01010110110000000000001100000000000000" foes="01010111110110000000001110000000000000" cont="0"/>
        <request index="6"  response="01010110110000000000001100000000000000" foes="01010111110110000000001110000000000000" cont="0"/>
        <request index="7"  response="01010110110000000000001100000000000000" foes="01010111110110000000001110000000000000" cont="0"/>
        <request index="8"  response="00110110000001111000001100001000000000" foes="00110110000001111000011110001000000000" cont="1"/>
        <request index="9"  response="00110110000001111000001100000000000000" foes="00110110000001111000011110000100000000" cont="1"/>
        <request index="10" response="00010110000000000000000000000000000000" foes="00010110000000000000000000000000000000" cont="1"/>
        <request index="11" response="00110000000001111000000000000000000000" foes="00110000000001111000000000000000000000" cont="1"/>
        <request index="12" response="00110000000001111000000000000000000000" foes="00110000000001111000000000000000000000" cont="1"/>
        <request index="13" response="10100000000001111000000000001111111111" foes="10100110000001111000000000001111111111" cont="0"/>
        <request index="14" response="01100001000111111000000000001111110000" foes="01100001001111111000000000001111110000" cont="1"/>
        <request index="15" response="01100001000111111000000000001111110000" foes="01100001001111111000000000001111110000" cont="1"/>
        <request index="16" response="00100000000000000000000000001100000000" foes="00100000000000000000000000001100000000" cont="1"/>
        <request index="17" response="01100000000000000000000000000000000000" foes="01100001000000000010000000000000000000" cont="1"/>
        <request index="18" response="01100000000000000000000000000000000000" foes="01100001000000000100000000000000000000" cont="1"/>
        <request index="19" response="01100000000000000000100000000000000000" foes="01100001000000000000100000000000000000" cont="1"/>
        <request index="20" response="01100000000000000001000000000000000000" foes="01100001000000000001000000000000000000" cont="1"/>
        <request index="21" response="01010110000000000000001101100000000000" foes="01010111000000000000001111101100000000" cont="0"/>
        <request index="22" response="01010110000000000000001101100000000000" foes="01010111000000000000001111101100000000" cont="0"/>
        <request index="23" response="01010110000000000000001101100000000000" foes="01010111000000000000001111101100000000" cont="0"/>
        <request index="24" response="01010110000000000000001101100000000000" foes="01010111000000000000001111101100000000" cont="0"/>
        <request index="25" response="11000110000100000000001100000011110000" foes="11001111000100000000001100000011110000" cont="1"/>
        <request index="26" response="11000110000000000000001100000011110000" foes="11001111000010000000001100000011110000" cont="1"/>
        <request index="27" response="01000000000000000000001100000000000000" foes="01000000000000000000001100000000000000" cont="1"/>
        <request index="28" response="11000000000000000000000000000011110000" foes="11000000000000000000000000000011110000" cont="1"/>
        <request index="29" response="11000000000000000000000000000011110000" foes="11000000000000000000000000000011110000" cont="1"/>
        <request index="30" response="10100000000111111111100000000011110000" foes="10100000000111111111101100000011110000" cont="0"/>
        <request index="31" response="10010000000111111000000010001111110000" foes="10010000000111111000000010011111110000" cont="1"/>
        <request index="32" response="10010000000111111000000010001111110000" foes="10010000000111111000000010011111110000" cont="1"/>
        <request index="33" response="10000000000110000000000000000000000000" foes="10000000000110000000000000000000000000" cont="1"/>
        <request index="34" response="00000000000000000000000000000000000000" foes="00000110000001111000000001111111111111" cont="0"/>
        <request index="35" response="00000000000000000000000000000000000000" foes="00000001000000000111111111101100000000" cont="0"/>
        <request index="36" response="00000000000000000000000000000000000000" foes="00000000111111111111101100000011110000" cont="0"/>
        <request index="37" response="00000000000000000000000000000000000000" foes="00001111110110000000000010000000001111" cont="0"/>
    </junction>