<additional>
   <tlLogic id="juncMain" type="static" programID="1" offset="0">
       <phase duration="45.053981" state="GGgggrrrrGGgggrrrrrGrG"/>
       <phase duration="4.741893" state="yyyyyrrrryyyyyrrrrrGrG"/>
       <phase duration="7.885466" state="rrrrrrrrrrrrrrrrrrrGrG"/>
       <phase duration="30.713124" state="rrrrrrrGGrrrrrrrGGrrrr"/>
       <phase duration="58.304010" state="rrrrrGgggrrrrrGgggGrGr"/>
       <phase duration="5.176064" state="rrrrryyyyrrrrryyyyGrGr"/>
       <phase duration="12.718683" state="rrrrrrrrrrrrrrrrrrGrGr"/>
   </tlLogic>
</additional>
