<?xml version="1.0" encoding="UTF-8"?>

<!-- generated on 2021-10-23 05:39:18 by Eclipse SUMO netconvert Version 1.10.0
<configuration xmlns:xsi="http://www.w3.org/2001/XMLSchema-instance" xsi:noNamespaceSchemaLocation="http://sumo.dlr.de/xsd/netconvertConfiguration.xsd">

    <input>
        <node-files value="data2/cross.nod.xml"/>
        <edge-files value="data2/cross.edg.xml"/>
        <connection-files value="data2/cross.con.xml"/>
    </input>

    <output>
        <output-file value="data2/cross.net.xml"/>
    </output>

    <junctions>
        <no-turnarounds.except-turnlane value="true"/>
    </junctions>

    <report>
        <aggregate-warnings value="5"/>
    </report>

</configuration>
-->

<net version="1.9" junctionCornerDetail="5" limitTurnSpeed="5.50" xmlns:xsi="http://www.w3.org/2001/XMLSchema-instance" xsi:noNamespaceSchemaLocation="http://sumo.dlr.de/xsd/net_file.xsd">

    <location netOffset="700.00,700.00" convBoundary="0.00,0.00,1100.00,1600.00" origBoundary="-700.00,-700.00,400.00,900.00" projParameter="!"/>

    <edge id=":juncE_0" function="internal">
        <lane id=":juncE_0_0" index="0" disallow="pedestrian" speed="3.65" length="4.67" shape="1100.00,698.40 1101.20,699.20 1101.60,700.00 1101.20,700.80 1100.00,701.60"/>
    </edge>
    <edge id=":juncE_w0" function="walkingarea">
        <lane id=":juncE_w0_0" index="0" allow="pedestrian" speed="1.00" length="35.20" width="3.20" shape="1100.00,716.00 1100.00,719.20 1100.00,680.80 1100.00,684.00"/>
    </edge>
    <edge id=":juncMain_0" function="internal">
        <lane id=":juncMain_0_0" index="0" disallow="pedestrian" speed="11.31" length="24.31" shape="698.40,720.70 698.99,709.54 700.77,701.58 703.40,697.35"/>
        <lane id=":juncMain_0_1" index="1" disallow="pedestrian" speed="10.75" length="21.50" shape="698.40,720.70 698.99,710.94 700.77,703.98 703.40,700.28"/>
    </edge>
    <edge id=":juncMain_2" function="internal">
        <lane id=":juncMain_2_0" index="0" disallow="pedestrian" speed="3.65" length="4.67" shape="698.40,720.70 699.20,719.50 700.00,719.10 700.80,719.50 701.60,720.70"/>
    </edge>
    <edge id=":juncMain_22" function="internal">
        <lane id=":juncMain_22_0" index="0" disallow="pedestrian" speed="11.31" length="5.10" shape="703.40,697.35 703.74,696.79 707.90,695.20"/>
    </edge>
    <edge id=":juncMain_23" function="internal">
        <lane id=":juncMain_23_0" index="0" disallow="pedestrian" speed="10.75" length="4.98" shape="703.40,700.28 703.74,699.79 707.90,698.40"/>
    </edge>
    <edge id=":juncMain_3" function="internal">
        <lane id=":juncMain_3_0" index="0" disallow="pedestrian" speed="6.86" length="5.34" shape="707.90,714.40 705.14,714.79 703.17,715.97 703.04,716.20"/>
    </edge>
    <edge id=":juncMain_4" function="internal">
        <lane id=":juncMain_4_0" index="0" disallow="pedestrian" speed="16.41" length="15.80" shape="707.90,714.40 692.10,714.40"/>
        <lane id=":juncMain_4_1" index="1" disallow="pedestrian" speed="16.41" length="15.80" shape="707.90,711.20 692.10,711.20"/>
        <lane id=":juncMain_4_2" index="2" disallow="pedestrian" speed="16.41" length="15.80" shape="707.90,708.00 692.10,708.00"/>
        <lane id=":juncMain_4_3" index="3" disallow="pedestrian" speed="16.41" length="15.80" shape="707.90,704.80 692.10,704.80"/>
    </edge>
    <edge id=":juncMain_8" function="internal">
        <lane id=":juncMain_8_0" index="0" disallow="pedestrian" speed="11.31" length="11.74" shape="707.90,704.80 703.74,703.21 700.77,698.42 700.41,696.80"/>
        <lane id=":juncMain_8_1" index="1" disallow="pedestrian" speed="10.75" length="8.56" shape="707.90,701.60 703.74,700.21 701.33,696.80"/>
    </edge>
    <edge id=":juncMain_10" function="internal">
        <lane id=":juncMain_10_0" index="0" disallow="pedestrian" speed="3.65" length="2.34" shape="707.90,701.60 706.70,700.80 706.30,700.00"/>
    </edge>
    <edge id=":juncMain_24" function="internal">
        <lane id=":juncMain_24_0" index="0" disallow="pedestrian" speed="6.86" length="4.82" shape="703.04,716.20 701.99,717.94 701.60,720.70"/>
    </edge>
    <edge id=":juncMain_25" function="internal">
        <lane id=":juncMain_25_0" index="0" disallow="pedestrian" speed="11.31" length="17.67" shape="700.41,696.80 698.99,690.46 698.40,679.30"/>
    </edge>
    <edge id=":juncMain_26" function="internal">
        <lane id=":juncMain_26_0" index="0" disallow="pedestrian" speed="10.75" length="17.92" shape="701.33,696.80 700.77,696.03 698.99,689.06 698.40,679.30"/>
    </edge>
    <edge id=":juncMain_27" function="internal">
        <lane id=":juncMain_27_0" index="0" disallow="pedestrian" speed="3.65" length="2.34" shape="706.30,700.00 706.70,699.20 707.90,698.40"/>
    </edge>
    <edge id=":juncMain_11" function="internal">
        <lane id=":juncMain_11_0" index="0" disallow="pedestrian" speed="11.31" length="24.31" shape="701.60,679.30 701.01,690.46 699.23,698.42 696.60,702.65"/>
        <lane id=":juncMain_11_1" index="1" disallow="pedestrian" speed="10.75" length="21.50" shape="701.60,679.30 701.01,689.06 699.23,696.02 696.60,699.72"/>
    </edge>
    <edge id=":juncMain_13" function="internal">
        <lane id=":juncMain_13_0" index="0" disallow="pedestrian" speed="3.65" length="4.67" shape="701.60,679.30 700.80,680.50 700.00,680.90 699.20,680.50 698.40,679.30"/>
    </edge>
    <edge id=":juncMain_28" function="internal">
        <lane id=":juncMain_28_0" index="0" disallow="pedestrian" speed="11.31" length="5.10" shape="696.60,702.65 696.26,703.21 692.10,704.80"/>
    </edge>
    <edge id=":juncMain_29" function="internal">
        <lane id=":juncMain_29_0" index="0" disallow="pedestrian" speed="10.75" length="4.98" shape="696.60,699.72 696.26,700.21 692.10,701.60"/>
    </edge>
    <edge id=":juncMain_14" function="internal">
        <lane id=":juncMain_14_0" index="0" disallow="pedestrian" speed="6.86" length="5.34" shape="692.10,685.60 694.86,685.21 696.83,684.03 696.96,683.80"/>
    </edge>
    <edge id=":juncMain_15" function="internal">
        <lane id=":juncMain_15_0" index="0" disallow="pedestrian" speed="16.41" length="15.80" shape="692.10,685.60 707.90,685.60"/>
        <lane id=":juncMain_15_1" index="1" disallow="pedestrian" speed="16.41" length="15.80" shape="692.10,688.80 707.90,688.80"/>
        <lane id=":juncMain_15_2" index="2" disallow="pedestrian" speed="16.41" length="15.80" shape="692.10,692.00 707.90,692.00"/>
        <lane id=":juncMain_15_3" index="3" disallow="pedestrian" speed="16.41" length="15.80" shape="692.10,695.20 707.90,695.20"/>
    </edge>
    <edge id=":juncMain_19" function="internal">
        <lane id=":juncMain_19_0" index="0" disallow="pedestrian" speed="11.31" length="11.74" shape="692.10,695.20 696.26,696.79 699.23,701.58 699.59,703.20"/>
        <lane id=":juncMain_19_1" index="1" disallow="pedestrian" speed="10.75" length="8.56" shape="692.10,698.40 696.26,699.79 698.67,703.20"/>
    </edge>
    <edge id=":juncMain_21" function="internal">
        <lane id=":juncMain_21_0" index="0" disallow="pedestrian" speed="3.65" length="2.34" shape="692.10,698.40 693.30,699.20 693.70,700.00"/>
    </edge>
    <edge id=":juncMain_30" function="internal">
        <lane id=":juncMain_30_0" index="0" disallow="pedestrian" speed="6.86" length="4.82" shape="696.96,683.80 698.01,682.06 698.40,679.30"/>
    </edge>
    <edge id=":juncMain_31" function="internal">
        <lane id=":juncMain_31_0" index="0" disallow="pedestrian" speed="11.31" length="17.67" shape="699.59,703.20 701.01,709.54 701.60,720.70"/>
    </edge>
    <edge id=":juncMain_32" function="internal">
        <lane id=":juncMain_32_0" index="0" disallow="pedestrian" speed="10.75" length="17.92" shape="698.67,703.20 699.23,703.97 701.01,710.94 701.60,720.70"/>
    </edge>
    <edge id=":juncMain_33" function="internal">
        <lane id=":juncMain_33_0" index="0" disallow="pedestrian" speed="3.65" length="2.34" shape="693.70,700.00 693.30,700.80 692.10,701.60"/>
    </edge>
    <edge id=":juncMain_c0" function="crossing" crossingEdges="edgeN_I edgeN_O">
        <lane id=":juncMain_c0_0" index="0" allow="pedestrian" speed="1.00" length="6.40" width="4.50" shape="703.20,718.45 696.80,718.45"/>
    </edge>
    <edge id=":juncMain_c1" function="crossing" crossingEdges="edgeE_I edgeE_O">
        <lane id=":juncMain_c1_0" index="0" allow="pedestrian" speed="1.00" length="32.00" width="4.50" shape="705.65,684.00 705.65,716.00"/>
    </edge>
    <edge id=":juncMain_c2" function="crossing" crossingEdges="edgeS_I edgeS_O">
        <lane id=":juncMain_c2_0" index="0" allow="pedestrian" speed="1.00" length="6.40" width="4.50" shape="696.80,681.55 703.20,681.55"/>
    </edge>
    <edge id=":juncMain_c3" function="crossing" crossingEdges="edgeW_I edgeW_O">
        <lane id=":juncMain_c3_0" index="0" allow="pedestrian" speed="1.00" length="32.00" width="4.50" shape="694.35,716.00 694.35,684.00"/>
    </edge>
    <edge id=":juncMain_w0" function="walkingarea">
        <lane id=":juncMain_w0_0" index="0" allow="pedestrian" speed="1.00" length="3.82" width="4.50" shape="692.10,716.00 692.10,719.20 693.60,720.70 696.80,720.70 696.67,719.26 696.28,718.09 695.62,717.17 694.71,716.52 693.54,716.13"/>
    </edge>
    <edge id=":juncMain_w1" function="walkingarea">
        <lane id=":juncMain_w1_0" index="0" allow="pedestrian" speed="1.00" length="3.82" width="4.50" shape="703.20,720.70 706.40,720.70 707.90,719.20 707.90,716.00 706.46,716.13 705.29,716.52 704.38,717.17 703.72,718.09 703.33,719.26"/>
    </edge>
    <edge id=":juncMain_w2" function="walkingarea">
        <lane id=":juncMain_w2_0" index="0" allow="pedestrian" speed="1.00" length="3.82" width="4.50" shape="707.90,684.00 707.90,680.80 706.40,679.30 703.20,679.30 703.33,680.74 703.72,681.91 704.38,682.83 705.29,683.48 706.46,683.87"/>
    </edge>
    <edge id=":juncMain_w3" function="walkingarea">
        <lane id=":juncMain_w3_0" index="0" allow="pedestrian" speed="1.00" length="3.82" width="4.50" shape="696.80,679.30 693.60,679.30 692.10,680.80 692.10,684.00 693.54,683.87 694.71,683.48 695.62,682.83 696.28,681.91 696.67,680.74"/>
    </edge>
    <edge id=":juncN_0" function="internal">
        <lane id=":juncN_0_0" index="0" disallow="pedestrian" speed="3.65" length="4.67" shape="701.60,1600.00 700.80,1601.20 700.00,1601.60 699.20,1601.20 698.40,1600.00"/>
    </edge>
    <edge id=":juncN_w0" function="walkingarea">
        <lane id=":juncN_w0_0" index="0" allow="pedestrian" speed="1.00" length="9.60" width="3.20" shape="696.80,1600.00 693.60,1600.00 706.40,1600.00 703.20,1600.00"/>
    </edge>
    <edge id=":juncS_0" function="internal">
        <lane id=":juncS_0_0" index="0" disallow="pedestrian" speed="3.65" length="4.67" shape="698.40,0.00 699.20,-1.20 700.00,-1.60 700.80,-1.20 701.60,0.00"/>
    </edge>
    <edge id=":juncS_w0" function="walkingarea">
        <lane id=":juncS_w0_0" index="0" allow="pedestrian" speed="1.00" length="9.60" width="3.20" shape="703.20,0.00 706.40,0.00 693.60,0.00 696.80,0.00"/>
    </edge>
    <edge id=":juncW_0" function="internal">
        <lane id=":juncW_0_0" index="0" disallow="pedestrian" speed="3.65" length="4.67" shape="0.00,701.60 -1.20,700.80 -1.60,700.00 -1.20,699.20 0.00,698.40"/>
    </edge>
    <edge id=":juncW_w0" function="walkingarea">
        <lane id=":juncW_w0_0" index="0" allow="pedestrian" speed="1.00" length="35.20" width="3.20" shape="0.00,684.00 0.00,680.80 0.00,719.20 0.00,716.00"/>
    </edge>

    <edge id="edgeE_I" from="juncMain" to="juncE" priority="46">
        <lane id="edgeE_I_0" index="0" allow="pedestrian" speed="20.81" length="392.10" shape="707.90,682.40 1100.00,682.40"/>
        <lane id="edgeE_I_1" index="1" disallow="pedestrian" speed="20.81" length="392.10" shape="707.90,685.60 1100.00,685.60"/>
        <lane id="edgeE_I_2" index="2" disallow="pedestrian" speed="20.81" length="392.10" shape="707.90,688.80 1100.00,688.80"/>
        <lane id="edgeE_I_3" index="3" disallow="pedestrian" speed="20.81" length="392.10" shape="707.90,692.00 1100.00,692.00"/>
        <lane id="edgeE_I_4" index="4" disallow="pedestrian" speed="20.81" length="392.10" shape="707.90,695.20 1100.00,695.20"/>
        <lane id="edgeE_I_5" index="5" disallow="pedestrian" speed="20.81" length="392.10" shape="707.90,698.40 1100.00,698.40"/>
    </edge>
    <edge id="edgeE_O" from="juncE" to="juncMain" priority="78">
        <lane id="edgeE_O_0" index="0" allow="pedestrian" speed="12.01" length="392.10" shape="1100.00,717.60 707.90,717.60"/>
        <lane id="edgeE_O_1" index="1" disallow="pedestrian" speed="12.01" length="392.10" shape="1100.00,714.40 707.90,714.40"/>
        <lane id="edgeE_O_2" index="2" disallow="pedestrian" speed="12.01" length="392.10" shape="1100.00,711.20 707.90,711.20"/>
        <lane id="edgeE_O_3" index="3" disallow="pedestrian" speed="12.01" length="392.10" shape="1100.00,708.00 707.90,708.00"/>
        <lane id="edgeE_O_4" index="4" disallow="pedestrian" speed="12.01" length="392.10" shape="1100.00,704.80 707.90,704.80"/>
        <lane id="edgeE_O_5" index="5" disallow="pedestrian" speed="12.01" length="392.10" shape="1100.00,701.60 707.90,701.60"/>
    </edge>
    <edge id="edgeN_I" from="juncMain" to="juncN" priority="46">
        <lane id="edgeN_I_0" index="0" allow="pedestrian" speed="11.77" length="879.30" shape="704.80,720.70 704.80,1600.00"/>
        <lane id="edgeN_I_1" index="1" disallow="pedestrian" speed="11.77" length="879.30" shape="701.60,720.70 701.60,1600.00"/>
    </edge>
    <edge id="edgeN_O" from="juncN" to="juncMain" priority="78">
        <lane id="edgeN_O_0" index="0" allow="pedestrian" speed="17.80" length="879.30" shape="695.20,1600.00 695.20,720.70"/>
        <lane id="edgeN_O_1" index="1" disallow="pedestrian" speed="17.80" length="879.30" shape="698.40,1600.00 698.40,720.70"/>
    </edge>
    <edge id="edgeS_I" from="juncMain" to="juncS" priority="46">
        <lane id="edgeS_I_0" index="0" allow="pedestrian" speed="11.77" length="679.30" shape="695.20,679.30 695.20,0.00"/>
        <lane id="edgeS_I_1" index="1" disallow="pedestrian" speed="11.77" length="679.30" shape="698.40,679.30 698.40,0.00"/>
    </edge>
    <edge id="edgeS_O" from="juncS" to="juncMain" priority="78">
        <lane id="edgeS_O_0" index="0" allow="pedestrian" speed="17.80" length="679.30" shape="704.80,0.00 704.80,679.30"/>
        <lane id="edgeS_O_1" index="1" disallow="pedestrian" speed="17.80" length="679.30" shape="701.60,0.00 701.60,679.30"/>
    </edge>
    <edge id="edgeW_I" from="juncMain" to="juncW" priority="46">
        <lane id="edgeW_I_0" index="0" allow="pedestrian" speed="20.81" length="692.10" shape="692.10,717.60 0.00,717.60"/>
        <lane id="edgeW_I_1" index="1" disallow="pedestrian" speed="20.81" length="692.10" shape="692.10,714.40 0.00,714.40"/>
        <lane id="edgeW_I_2" index="2" disallow="pedestrian" speed="20.81" length="692.10" shape="692.10,711.20 0.00,711.20"/>
        <lane id="edgeW_I_3" index="3" disallow="pedestrian" speed="20.81" length="692.10" shape="692.10,708.00 0.00,708.00"/>
        <lane id="edgeW_I_4" index="4" disallow="pedestrian" speed="20.81" length="692.10" shape="692.10,704.80 0.00,704.80"/>
        <lane id="edgeW_I_5" index="5" disallow="pedestrian" speed="20.81" length="692.10" shape="692.10,701.60 0.00,701.60"/>
    </edge>
    <edge id="edgeW_O" from="juncW" to="juncMain" priority="78">
        <lane id="edgeW_O_0" index="0" allow="pedestrian" speed="12.01" length="692.10" shape="0.00,682.40 692.10,682.40"/>
        <lane id="edgeW_O_1" index="1" disallow="pedestrian" speed="12.01" length="692.10" shape="0.00,685.60 692.10,685.60"/>
        <lane id="edgeW_O_2" index="2" disallow="pedestrian" speed="12.01" length="692.10" shape="0.00,688.80 692.10,688.80"/>
        <lane id="edgeW_O_3" index="3" disallow="pedestrian" speed="12.01" length="692.10" shape="0.00,692.00 692.10,692.00"/>
        <lane id="edgeW_O_4" index="4" disallow="pedestrian" speed="12.01" length="692.10" shape="0.00,695.20 692.10,695.20"/>
        <lane id="edgeW_O_5" index="5" disallow="pedestrian" speed="12.01" length="692.10" shape="0.00,698.40 692.10,698.40"/>
    </edge>

    <tlLogic id="juncMain" type="static" programID="0" offset="0">
        <phase duration="31" state="ggGrrrrrrrrggGrrrrrrrrrGrG"/>
        <phase duration="5"  state="ggGrrrrrrrrggGrrrrrrrrrrrr"/>
        <phase duration="4"  state="yyyrrrrrrrryyyrrrrrrrrrrrr"/>
        <phase duration="31" state="rrrgGGGGgggrrrgGGGGgggGrGr"/>
        <phase duration="5"  state="rrrgGGGGgggrrrgGGGGgggrrrr"/>
        <phase duration="4"  state="rrryyyyyyggrrryyyyyyggrrrr"/>
        <phase duration="6"  state="rrrrrrrrrGGrrrrrrrrrGGrrrr"/>
        <phase duration="4"  state="rrrrrrrrryyrrrrrrrrryyrrrr"/>
    </tlLogic>

    <junction id="juncE" type="priority" x="1100.00" y="700.00" incLanes="edgeE_I_0 edgeE_I_1 edgeE_I_2 edgeE_I_3 edgeE_I_4 edgeE_I_5" intLanes=":juncE_0_0" shape="1100.00,700.00 1100.00,680.80 1100.00,700.00">
        <request index="0" response="0" foes="0" cont="0"/>
    </junction>
    <junction id="juncMain" type="traffic_light" x="700.00" y="700.00" incLanes="edgeN_O_0 edgeN_O_1 edgeE_O_0 edgeE_O_1 edgeE_O_2 edgeE_O_3 edgeE_O_4 edgeE_O_5 edgeS_O_0 edgeS_O_1 edgeW_O_0 edgeW_O_1 edgeW_O_2 edgeW_O_3 edgeW_O_4 edgeW_O_5 :juncMain_w1_0 :juncMain_w2_0 :juncMain_w3_0 :juncMain_w0_0" intLanes=":juncMain_22_0 :juncMain_23_0 :juncMain_2_0 :juncMain_24_0 :juncMain_4_0 :juncMain_4_1 :juncMain_4_2 :juncMain_4_3 :juncMain_25_0 :juncMain_26_0 :juncMain_27_0 :juncMain_28_0 :juncMain_29_0 :juncMain_13_0 :juncMain_30_0 :juncMain_15_0 :juncMain_15_1 :juncMain_15_2 :juncMain_15_3 :juncMain_31_0 :juncMain_32_0 :juncMain_33_0 :juncMain_c0_0 :juncMain_c1_0 :juncMain_c2_0 :juncMain_c3_0" shape="693.60,720.70 706.40,720.70 706.57,719.87 706.77,719.58 707.07,719.37 707.44,719.24 707.90,719.20 707.90,680.80 707.07,680.63 706.77,680.42 706.57,680.13 706.44,679.76 706.40,679.30 693.60,679.30 693.43,680.13 693.23,680.42 692.93,680.63 692.56,680.76 692.10,680.80 692.10,719.20 692.93,719.37 693.23,719.58 693.43,719.87 693.56,720.24">
        <request index="0"  response="00110110000000001100000000" foes="00110111111000011111110000" cont="1"/>
        <request index="1"  response="00110110000000001100000000" foes="00110111111000011111110000" cont="1"/>
        <request index="2"  response="00010110000000000000001000" foes="00010110000000000000001000" cont="0"/>
        <request index="3"  response="00110000000000000000000000" foes="00110110000000000000000100" cont="1"/>
        <request index="4"  response="10100000000001100000000011" foes="10100110000001100000000011" cont="0"/>
        <request index="5"  response="10100000000001100000000011" foes="10100110000001100000000011" cont="0"/>
        <request index="6"  response="10100000000001100000000011" foes="10100110000001100000000011" cont="0"/>
        <request index="7"  response="10100000000001100000000011" foes="10100110000001100000000011" cont="0"/>
        <request index="8"  response="01100001111101101000000011" foes="01100001111111101000000011" cont="1"/>
        <request index="9"  response="01100001111101100000000011" foes="01100001111111100100000011" cont="1"/>
        <request index="10" response="00100000000000000000000011" foes="00100000000000000000000011" cont="1"/>
        <request index="11" response="11000110000000001100000000" foes="11001111111000001111110000" cont="1"/>
        <request index="12" response="11000110000000001100000000" foes="11001111111000001111110000" cont="1"/>
        <request index="13" response="01000000000100001100000000" foes="01000000000100001100000000" cont="0"/>
        <request index="14" response="11000000000000000000000000" foes="11000000000010001100000000" cont="1"/>
        <request index="15" response="10100000000001100000000011" foes="10100000000001101100000011" cont="0"/>
        <request index="16" response="10100000000001100000000011" foes="10100000000001101100000011" cont="0"/>
        <request index="17" response="10100000000001100000000011" foes="10100000000001101100000011" cont="0"/>
        <request index="18" response="10100000000001100000000011" foes="10100000000001101100000011" cont="0"/>
        <request index="19" response="10010100000001100011111011" foes="10010100000001100011111111" cont="1"/>
        <request index="20" response="10010000000001100011111011" foes="10010010000001100011111111" cont="1"/>
        <request index="21" response="10000000000001100000000000" foes="10000000000001100000000000" cont="1"/>
        <request index="22" response="00000000000000000000000000" foes="00000110000000000000001111" cont="0"/>
        <request index="23" response="00000000000000000000000000" foes="00000001111000011111111011" cont="0"/>
        <request index="24" response="00000000000000000000000000" foes="00000000000111101100000000" cont="0"/>
        <request index="25" response="00000000000000000000000000" foes="00001111111101100011110000" cont="0"/>
    </junction>
    <junction id="juncN" type="priority" x="700.00" y="1600.00" incLanes="edgeN_I_0 edgeN_I_1" intLanes=":juncN_0_0" shape="700.00,1600.00 706.40,1600.00 700.00,1600.00">
        <request index="0" response="0" foes="0" cont="0"/>
    </junction>
    <junction id="juncS" type="priority" x="700.00" y="0.00" incLanes="edgeS_I_0 edgeS_I_1" intLanes=":juncS_0_0" shape="700.00,0.00 693.60,0.00 700.00,0.00">
        <request index="0" response="0" foes="0" cont="0"/>
    </junction>
    <junction id="juncW" type="priority" x="0.00" y="700.00" incLanes="edgeW_I_0 edgeW_I_1 edgeW_I_2 edgeW_I_3 edgeW_I_4 edgeW_I_5" intLanes=":juncW_0_0" shape="0.00,700.00 0.00,719.20 0.00,700.00">
        <request index="0" response="0" foes="0" cont="0"/>
    </junction>

    <junction id=":juncMain_22_0" type="internal" x="703.40" y="697.35" incLanes=":juncMain_0_0" intLanes=":juncMain_4_0 :juncMain_4_1 :juncMain_4_2 :juncMain_4_3 :juncMain_8_0 :juncMain_8_1 :juncMain_10_0 :juncMain_15_0 :juncMain_15_1 :juncMain_15_2 :juncMain_15_3 :juncMain_19_0 :juncMain_19_1 :juncMain_c0_0 :juncMain_c1_0"/>
    <junction id=":juncMain_23_0" type="internal" x="703.40" y="700.28" incLanes=":juncMain_0_1" intLanes=":juncMain_4_0 :juncMain_4_1 :juncMain_4_2 :juncMain_4_3 :juncMain_8_0 :juncMain_8_1 :juncMain_10_0 :juncMain_15_0 :juncMain_15_1 :juncMain_15_2 :juncMain_15_3 :juncMain_19_0 :juncMain_19_1 :juncMain_c0_0 :juncMain_c1_0"/>
    <junction id=":juncMain_24_0" type="internal" x="703.04" y="716.20" incLanes=":juncMain_3_0" intLanes=":juncMain_2_0 :juncMain_19_0 :juncMain_19_1 :juncMain_c0_0 :juncMain_c1_0"/>
    <junction id=":juncMain_25_0" type="internal" x="700.41" y="696.80" incLanes=":juncMain_8_0 edgeW_O_1 edgeW_O_2 edgeW_O_3 edgeW_O_4" intLanes=":juncMain_0_0 :juncMain_0_1 :juncMain_8_1 :juncMain_11_0 :juncMain_11_1 :juncMain_13_0 :juncMain_14_0 :juncMain_15_0 :juncMain_15_1 :juncMain_15_2 :juncMain_15_3 :juncMain_c1_0 :juncMain_c2_0"/>
    <junction id=":juncMain_26_0" type="internal" x="701.33" y="696.80" incLanes=":juncMain_8_1 edgeW_O_1 edgeW_O_2 edgeW_O_3 edgeW_O_4" intLanes=":juncMain_0_0 :juncMain_0_1 :juncMain_8_0 :juncMain_11_0 :juncMain_11_1 :juncMain_13_0 :juncMain_14_0 :juncMain_15_0 :juncMain_15_1 :juncMain_15_2 :juncMain_15_3 :juncMain_c1_0 :juncMain_c2_0"/>
    <junction id=":juncMain_27_0" type="internal" x="706.30" y="700.00" incLanes=":juncMain_10_0 edgeN_O_1 edgeW_O_1 edgeW_O_2 edgeW_O_3 edgeW_O_4" intLanes=":juncMain_0_0 :juncMain_0_1 :juncMain_15_0 :juncMain_15_1 :juncMain_15_2 :juncMain_15_3 :juncMain_c1_0 :juncMain_c1_0"/>
    <junction id=":juncMain_28_0" type="internal" x="696.60" y="702.65" incLanes=":juncMain_11_0" intLanes=":juncMain_4_0 :juncMain_4_1 :juncMain_4_2 :juncMain_4_3 :juncMain_8_0 :juncMain_8_1 :juncMain_15_0 :juncMain_15_1 :juncMain_15_2 :juncMain_15_3 :juncMain_19_0 :juncMain_19_1 :juncMain_21_0 :juncMain_c2_0 :juncMain_c3_0"/>
    <junction id=":juncMain_29_0" type="internal" x="696.60" y="699.72" incLanes=":juncMain_11_1" intLanes=":juncMain_4_0 :juncMain_4_1 :juncMain_4_2 :juncMain_4_3 :juncMain_8_0 :juncMain_8_1 :juncMain_15_0 :juncMain_15_1 :juncMain_15_2 :juncMain_15_3 :juncMain_19_0 :juncMain_19_1 :juncMain_21_0 :juncMain_c2_0 :juncMain_c3_0"/>
    <junction id=":juncMain_30_0" type="internal" x="696.96" y="683.80" incLanes=":juncMain_14_0" intLanes=":juncMain_8_0 :juncMain_8_1 :juncMain_13_0 :juncMain_c2_0 :juncMain_c3_0"/>
    <junction id=":juncMain_31_0" type="internal" x="699.59" y="703.20" incLanes=":juncMain_19_0 edgeE_O_1 edgeE_O_2 edgeE_O_3 edgeE_O_4" intLanes=":juncMain_0_0 :juncMain_0_1 :juncMain_2_0 :juncMain_3_0 :juncMain_4_0 :juncMain_4_1 :juncMain_4_2 :juncMain_4_3 :juncMain_11_0 :juncMain_11_1 :juncMain_19_1 :juncMain_c0_0 :juncMain_c3_0"/>
    <junction id=":juncMain_32_0" type="internal" x="698.67" y="703.20" incLanes=":juncMain_19_1 edgeE_O_1 edgeE_O_2 edgeE_O_3 edgeE_O_4" intLanes=":juncMain_0_0 :juncMain_0_1 :juncMain_2_0 :juncMain_3_0 :juncMain_4_0 :juncMain_4_1 :juncMain_4_2 :juncMain_4_3 :juncMain_11_0 :juncMain_11_1 :juncMain_19_0 :juncMain_c0_0 :juncMain_c3_0"/>
    <junction id=":juncMain_33_0" type="internal" x="693.70" y="700.00" incLanes=":juncMain_21_0 edgeE_O_1 edgeE_O_2 edgeE_O_3 edgeE_O_4 edgeS_O_1" intLanes=":juncMain_4_0 :juncMain_4_1 :juncMain_4_2 :juncMain_4_3 :juncMain_11_0 :juncMain_11_1 :juncMain_c3_0 :juncMain_c3_0"/>

    <connection from="edgeE_I" to="edgeE_O" fromLane="5" toLane="5" via=":juncE_0_0" dir="t" state="M"/>
    <connection from="edgeE_O" to="edgeN_I" fromLane="1" toLane="1" via=":juncMain_3_0" tl="juncMain" linkIndex="3" dir="r" state="o"/>
    <connection from="edgeE_O" to="edgeW_I" fromLane="1" toLane="1" via=":juncMain_4_0" tl="juncMain" linkIndex="4" dir="s" state="o"/>
    <connection from="edgeE_O" to="edgeW_I" fromLane="2" toLane="2" via=":juncMain_4_1" tl="juncMain" linkIndex="5" dir="s" state="o"/>
    <connection from="edgeE_O" to="edgeW_I" fromLane="3" toLane="3" via=":juncMain_4_2" tl="juncMain" linkIndex="6" dir="s" state="o"/>
    <connection from="edgeE_O" to="edgeW_I" fromLane="4" toLane="4" via=":juncMain_4_3" tl="juncMain" linkIndex="7" dir="s" state="o"/>
    <connection from="edgeE_O" to="edgeS_I" fromLane="4" toLane="1" via=":juncMain_8_0" tl="juncMain" linkIndex="8" dir="l" state="o"/>
    <connection from="edgeE_O" to="edgeS_I" fromLane="5" toLane="1" via=":juncMain_8_1" tl="juncMain" linkIndex="9" dir="l" state="o"/>
    <connection from="edgeE_O" to="edgeE_I" fromLane="5" toLane="5" via=":juncMain_10_0" tl="juncMain" linkIndex="10" dir="t" state="o"/>
    <connection from="edgeN_I" to="edgeN_O" fromLane="1" toLane="1" via=":juncN_0_0" dir="t" state="M"/>
    <connection from="edgeN_O" to="edgeE_I" fromLane="1" toLane="4" via=":juncMain_0_0" tl="juncMain" linkIndex="0" dir="l" state="o"/>
    <connection from="edgeN_O" to="edgeE_I" fromLane="1" toLane="5" via=":juncMain_0_1" tl="juncMain" linkIndex="1" dir="l" state="o"/>
    <connection from="edgeN_O" to="edgeN_I" fromLane="1" toLane="1" via=":juncMain_2_0" tl="juncMain" linkIndex="2" dir="t" state="o"/>
    <connection from="edgeS_I" to="edgeS_O" fromLane="1" toLane="1" via=":juncS_0_0" dir="t" state="M"/>
    <connection from="edgeS_O" to="edgeW_I" fromLane="1" toLane="4" via=":juncMain_11_0" tl="juncMain" linkIndex="11" dir="l" state="o"/>
    <connection from="edgeS_O" to="edgeW_I" fromLane="1" toLane="5" via=":juncMain_11_1" tl="juncMain" linkIndex="12" dir="l" state="o"/>
    <connection from="edgeS_O" to="edgeS_I" fromLane="1" toLane="1" via=":juncMain_13_0" tl="juncMain" linkIndex="13" dir="t" state="o"/>
    <connection from="edgeW_I" to="edgeW_O" fromLane="5" toLane="5" via=":juncW_0_0" dir="t" state="M"/>
    <connection from="edgeW_O" to="edgeS_I" fromLane="1" toLane="1" via=":juncMain_14_0" tl="juncMain" linkIndex="14" dir="r" state="o"/>
    <connection from="edgeW_O" to="edgeE_I" fromLane="1" toLane="1" via=":juncMain_15_0" tl="juncMain" linkIndex="15" dir="s" state="o"/>
    <connection from="edgeW_O" to="edgeE_I" fromLane="2" toLane="2" via=":juncMain_15_1" tl="juncMain" linkIndex="16" dir="s" state="o"/>
    <connection from="edgeW_O" to="edgeE_I" fromLane="3" toLane="3" via=":juncMain_15_2" tl="juncMain" linkIndex="17" dir="s" state="o"/>
    <connection from="edgeW_O" to="edgeE_I" fromLane="4" toLane="4" via=":juncMain_15_3" tl="juncMain" linkIndex="18" dir="s" state="o"/>
    <connection from="edgeW_O" to="edgeN_I" fromLane="4" toLane="1" via=":juncMain_19_0" tl="juncMain" linkIndex="19" dir="l" state="o"/>
    <connection from="edgeW_O" to="edgeN_I" fromLane="5" toLane="1" via=":juncMain_19_1" tl="juncMain" linkIndex="20" dir="l" state="o"/>
    <connection from="edgeW_O" to="edgeW_I" fromLane="5" toLane="5" via=":juncMain_21_0" tl="juncMain" linkIndex="21" dir="t" state="o"/>

    <connection from=":juncE_0" to="edgeE_O" fromLane="0" toLane="5" dir="t" state="M"/>
    <connection from=":juncMain_0" to="edgeE_I" fromLane="0" toLane="4" via=":juncMain_22_0" dir="l" state="m"/>
    <connection from=":juncMain_22" to="edgeE_I" fromLane="0" toLane="4" dir="l" state="M"/>
    <connection from=":juncMain_0" to="edgeE_I" fromLane="1" toLane="5" via=":juncMain_23_0" dir="l" state="m"/>
    <connection from=":juncMain_23" to="edgeE_I" fromLane="0" toLane="5" dir="l" state="M"/>
    <connection from=":juncMain_2" to="edgeN_I" fromLane="0" toLane="1" dir="t" state="M"/>
    <connection from=":juncMain_3" to="edgeN_I" fromLane="0" toLane="1" via=":juncMain_24_0" dir="r" state="m"/>
    <connection from=":juncMain_24" to="edgeN_I" fromLane="0" toLane="1" dir="r" state="M"/>
    <connection from=":juncMain_4" to="edgeW_I" fromLane="0" toLane="1" dir="s" state="M"/>
    <connection from=":juncMain_4" to="edgeW_I" fromLane="1" toLane="2" dir="s" state="M"/>
    <connection from=":juncMain_4" to="edgeW_I" fromLane="2" toLane="3" dir="s" state="M"/>