<routes>
   <personFlow id="pRegN" begin="0" end="3000" personsPerHour="543.683197">
        <walk edges="edgeN_O edgeS_I" speed="1.991429"/>
    </personFlow>
   <personFlow id="pRegS" begin="0" end="3000" personsPerHour="1033.808563">
        <walk edges="edgeS_O edgeN_I" speed="2.151213"/>
    </personFlow>
   <personFlow id="pRegW" begin="0" end="3000" personsPerHour="935.533982">
        <walk edges="edgeW_O edgeE_I" speed="1.489604"/>
    </personFlow>
   <personFlow id="pRegE" begin="0" end="3000" personsPerHour="718.611178">
        <walk edges="edgeE_O edgeW_I" speed="1.029406"/>
    </personFlow>
   <personFlow id="pOppN" begin="0" end="3000" personsPerHour="362.979370" departPos="900.000000">
        <walk edges="edgeN_I edgeS_O" speed="2.147629"/>
    </personFlow>
   <personFlow id="pOppS" begin="0" end="3000" personsPerHour="983.381075" departPos="700.000000">
        <walk edges="edgeS_I edgeN_O" speed="0.989744"/>
    </personFlow>
   <personFlow id="pOppW" begin="0" end="3000" personsPerHour="657.721136" departPos="700.000000">
        <walk edges="edgeW_I edgeE_O" speed="1.033933"/>
    </personFlow>
   <personFlow id="pOppE" begin="0" end="3000" personsPerHour="880.538286" departPos="400.000000">
        <walk edges="edgeE_I edgeW_O" speed="1.839704"/>
    </personFlow>

    <route id="edgeN_edgeN" edges="edgeN_O edgeN_I" />
    <route id="edgeN_edgeS" edges="edgeN_O edgeS_I" />
    <route id="edgeN_edgeW" edges="edgeN_O edgeW_I" />
    <route id="edgeN_edgeE" edges="edgeN_O edgeE_I" />
    <route id="edgeS_edgeN" edges="edgeS_O edgeN_I" />
    <route id="edgeS_edgeS" edges="edgeS_O edgeS_I" />
    <route id="edgeS_edgeW" edges="edgeS_O edgeW_I" />
    <route id="edgeS_edgeE" edges="edgeS_O edgeE_I" />
    <route id="edgeW_edgeN" edges="edgeW_O edgeN_I" />
    <route id="edgeW_edgeS" edges="edgeW_O edgeS_I" />
    <route id="edgeW_edgeW" edges="edgeW_O edgeW_I" />
    <route id="edgeW_edgeE" edges="edgeW_O edgeE_I" />
    <route id="edgeE_edgeN" edges="edgeE_O edgeN_I" />
    <route id="edgeE_edgeS" edges="edgeE_O edgeS_I" />
    <route id="edgeE_edgeW" edges="edgeE_O edgeW_I" />
    <route id="edgeE_edgeE" edges="edgeE_O edgeE_I" />
    
   <vType id="vehicleS_0" length="4.273000" accel="3.222000" decel="5.544000" sigma="0.5" minGap="2.469150" maxSpeed="125.106636" guiShape="passenger" />
   <vehicle id="uturnS_0" type="vehicleS_0" route="edgeS_edgeS" depart="0" departLane="1" />

   <vType id="vehicleE_1" length="3.925000" accel="2.396000" decel="4.795000" sigma="0.5" minGap="2.469150" maxSpeed="125.106636" guiShape="passenger" />
   <vehicle id="straightE_1" type="vehicleE_1" route="edgeE_edgeW" depart="0" departLane="1" />

   <vType id="vehicleE_2" length="4.372000" accel="3.435000" decel="5.903000" sigma="0.5" minGap="2.469150" maxSpeed="125.106636" guiShape="passenger" />
   <vehicle id="straightE_2" type="vehicleE_2" route="edgeE_edgeW" depart="1" departLane="2" />

   <vType id="vehicleW_3" length="4.477000" accel="2.195000" decel="3.009000" sigma="0.5" minGap="2.469150" maxSpeed="125.106636" guiShape="passenger" />
   <vehicle id="straightW_3" type="vehicleW_3" route="edgeW_edgeE" depart="2" departLane="3" />

   <vType id="vehicleE_4" length="4.392000" accel="2.174000" decel="3.604000" sigma="0.5" minGap="2.469150" maxSpeed="125.106636" guiShape="passenger" />
   <vehicle id="leftE_4" type="vehicleE_4" route="edgeE_edgeS" depart="5" departLane="4" />

   <vType id="vehicleE_5" length="5.077000" accel="3.167000" decel="5.574000" sigma="0.5" minGap="2.469150" maxSpeed="125.106636" guiShape="passenger" />
   <vehicle id="straightE_5" type="vehicleE_5" route="edgeE_edgeW" depart="6" departLane="1" />

   <vType id="vehicleS_6" length="4.165000" accel="2.652000" decel="6.912000" sigma="0.5" minGap="2.469150" maxSpeed="125.106636" guiShape="passenger" />
   <vehicle id="uturnS_6" type="vehicleS_6" route="edgeS_edgeS" depart="7" departLane="1" />

   <vType id="vehicleE_7" length="4.439000" accel="2.474000" decel="3.508000" sigma="0.5" minGap="2.469150" maxSpeed="125.106636" guiShape="passenger" />
   <vehicle id="leftE_7" type="vehicleE_7" route="edgeE_edgeS" depart="8" departLane="5" />

   <vType id="vehicleN_8" length="5.462000" accel="3.073000" decel="3.211000" sigma="0.5" minGap="2.469150" maxSpeed="125.106636" guiShape="passenger" />
   <vehicle id="uturnN_8" type="vehicleN_8" route="edgeN_edgeN" depart="9" departLane="1" />

   <vType id="vehicleS_9" length="4.841000" accel="3.239000" decel="4.459000" sigma="0.5" minGap="2.469150" maxSpeed="125.106636" guiShape="passenger" />
   <vehicle id="uturnS_9" type="vehicleS_9" route="edgeS_edgeS" depart="9" departLane="1" />

   <vType id="vehicleE_10" length="4.120000" accel="2.835000" decel="5.890000" sigma="0.5" minGap="2.469150" maxSpeed="125.106636" guiShape="passenger" />
   <vehicle id="uturnE_10" type="vehicleE_10" route="edgeE_edgeE" depart="9" departLane="5" />

   <vType id="vehicleS_11" length="5.095000" accel="2.999000" decel="4.268000" sigma="0.5" minGap="2.469150" maxSpeed="125.106636" guiShape="passenger" />
   <vehicle id="uturnS_11" type="vehicleS_11" route="edgeS_edgeS" depart="10" departLane="1" />

   <vType id="vehicleE_12" length="4.866000" accel="3.551000" decel="5.560000" sigma="0.5" minGap="2.469150" maxSpeed="125.106636" guiShape="passenger" />
   <vehicle id="straightE_12" type="vehicleE_12" route="edgeE_edgeW" depart="10" departLane="1" />

   <vType id="vehicleN_13" length="4.687000" accel="3.570000" decel="6.415000" sigma="0.5" minGap="2.469150" maxSpeed="125.106636" guiShape="passenger" />
   <vehicle id="uturnN_13" type="vehicleN_13" route="edgeN_edgeN" depart="12" departLane="1" />

   <vType id="vehicleS_14" length="4.193000" accel="3.504000" decel="6.392000" sigma="0.5" minGap="2.469150" maxSpeed="125.106636" guiShape="passenger" />
   <vehicle id="uturnS_14" type="vehicleS_14" route="edgeS_edgeS" depart="12" departLane="1" />

   <vType id="vehicleS_15" length="4.841000" accel="3.290000" decel="4.905000" sigma="0.5" minGap="2.469150" maxSpeed="125.106636" guiShape="passenger" />
   <vehicle id="uturnS_15" type="vehicleS_15" route="edgeS_edgeS" depart="13" departLane="1" />

   <vType id="vehicleW_16" length="3.906000" accel="3.530000" decel="6.427000" sigma="0.5" minGap="2.469150" maxSpeed="125.106636" guiShape="passenger" />
   <vehicle id="straightW_16" type="vehicleW_16" route="edgeW_edgeE" depart="13" departLane="3" />

   <vType id="vehicleE_17" length="4.892000" accel="2.172000" decel="5.786000" sigma="0.5" minGap="2.469150" maxSpeed="125.106636" guiShape="passenger" />
   <vehicle id="straightE_17" type="vehicleE_17" route="edgeE_edgeW" depart="13" departLane="1" />

   <vType id="vehicleW_18" length="5.574000" accel="2.310000" decel="4.893000" sigma="0.5" minGap="2.469150" maxSpeed="125.106636" guiShape="passenger" />
   <vehicle id="straightW_18" type="vehicleW_18" route="edgeW_edgeE" depart="14" departLane="4" />

   <vType id="vehicleS_19" length="3.909000" accel="2.931000" decel="5.158000" sigma="0.5" minGap="2.469150" maxSpeed="125.106636" guiShape="passenger" />
   <vehicle id="leftS_19" type="vehicleS_19" route="edgeS_edgeW" depart="17" departLane="1" />

   <vType id="vehicleW_20" length="4.283000" accel="3.492000" decel="6.344000" sigma="0.5" minGap="2.469150" maxSpeed="125.106636" guiShape="passenger" />
   <vehicle id="straightW_20" type="vehicleW_20" route="edgeW_edgeE" depart="17" departLane="1" />

   <vType id="vehicleW_21" length="4.603000" accel="2.197000" decel="5.467000" sigma="0.5" minGap="2.469150" maxSpeed="125.106636" guiShape="passenger" />
   <vehicle id="straightW_21" type="vehicleW_21" route="edgeW_edgeE" depart="19" departLane="3" />

   <vType id="vehicleE_22" length="5.183000" accel="3.122000" decel="6.888000" sigma="0.5" minGap="2.469150" maxSpeed="125.106636" guiShape="passenger" />
   <vehicle id="straightE_22" type="vehicleE_22" route="edgeE_edgeW" depart="19" departLane="1" />

   <vType id="vehicleN_23" length="5.311000" accel="2.221000" decel="3.424000" sigma="0.5" minGap="2.469150" maxSpeed="125.106636" guiShape="passenger" />
   <vehicle id="uturnN_23" type="vehicleN_23" route="edgeN_edgeN" depart="20" departLane="1" />

   <vType id="vehicleW_24" length="4.703000" accel="3.443000" decel="2.916000" sigma="0.5" minGap="2.469150" maxSpeed="125.106636" guiShape="passenger" />
   <vehicle id="leftW_24" type="vehicleW_24" route="edgeW_edgeN" depart="20" departLane="4" />

   <vType id="vehicleE_25" length="5.375000" accel="3.594000" decel="6.636000" sigma="0.5" minGap="2.469150" maxSpeed="125.106636" guiShape="passenger" />
   <vehicle id="uturnE_25" type="vehicleE_25" route="edgeE_edgeE" depart="20" departLane="5" />

   <vType id="vehicleS_26" length="4.256000" accel="2.687000" decel="2.842000" sigma="0.5" minGap="2.469150" maxSpeed="125.106636" guiShape="passenger" />
   <vehicle id="uturnS_26" type="vehicleS_26" route="edgeS_edgeS" depart="21" departLane="1" />

   <vType id="vehicleE_27" length="5.662000" accel="2.934000" decel="5.727000" sigma="0.5" minGap="2.469150" maxSpeed="125.106636" guiShape="passenger" />
   <vehicle id="straightE_27" type="vehicleE_27" route="edgeE_edgeW" depart="22" departLane="2" />

   <vType id="vehicleN_28" length="3.977000" accel="3.221000" decel="2.853000" sigma="0.5" minGap="2.469150" maxSpeed="125.106636" guiShape="passenger" />
   <vehicle id="uturnN_28" type="vehicleN_28" route="edgeN_edgeN" depart="23" departLane="1" />

   <vType id="vehicleW_29" length="5.525000" accel="2.895000" decel="2.835000" sigma="0.5" minGap="2.469150" maxSpeed="125.106636" guiShape="passenger" />
   <vehicle id="straightW_29" type="vehicleW_29" route="edgeW_edgeE" depart="23" departLane="1" />

   <vType id="vehicleN_30" length="5.421000" accel="2.691000" decel="6.702000" sigma="0.5" minGap="2.469150" maxSpeed="125.106636" guiShape="passenger" />
   <vehicle id="leftN_30" type="vehicleN_30" route="edgeN_edgeE" depart="24" departLane="1" />

   <vType id="vehicleW_31" length="5.054000" accel="2.949000" decel="3.969000" sigma="0.5" minGap="2.469150" maxSpeed="125.106636" guiShape="passenger" />
   <vehicle id="leftW_31" type="vehicleW_31" route="edgeW_edgeN" depart="24" departLane="5" />

   <vType id="vehicleE_32" length="4.301000" accel="2.678000" decel="5.522000" sigma="0.5" minGap="2.469150" maxSpeed="125.106636" guiShape="passenger" />
   <vehicle id="straightE_32" type="vehicleE_32" route="edgeE_edgeW" depart="24" departLane="3" />

   <vType id="vehicleE_33" length="4.884000" accel="2.206000" decel="4.936000" sigma="0.5" minGap="2.469150" maxSpeed="125.106636" guiShape="passenger" />
   <vehicle id="straightE_33" type="vehicleE_33" route="edgeE_edgeW" depart="25" departLane="3" />

   <vType id="vehicleN_34" length="3.995000" accel="2.437000" decel="3.832000" sigma="0.5" minGap="2.469150" maxSpeed="125.106636" guiShape="passenger" />
   <vehicle id="uturnN_34" type="vehicleN_34" route="edgeN_edgeN" depart="26" departLane="1" />

   <vType id="vehicleE_35" length="5.323000" accel="2.891000" decel="5.506000" sigma="0.5" minGap="2.469150" maxSpeed="125.106636" guiShape="passenger" />
   <vehicle id="straightE_35" type="vehicleE_35" route="edgeE_edgeW" depart="26" departLane="3" />

   <vType id="vehicleS_36" length="4.347000" accel="3.467000" decel="5.832000" sigma="0.5" minGap="2.469150" maxSpeed="125.106636" guiShape="passenger" />
   <vehicle id="uturnS_36" type="vehicleS_36" route="edgeS_edgeS" depart="27" departLane="1" />

   <vType id="vehicleW_37" length="4.250000" accel="2.594000" decel="5.592000" sigma="0.5" minGap="2.469150" maxSpeed="125.106636" guiShape="passenger" />
   <vehicle id="straightW_37" type="vehicleW_37" route="edgeW_edgeE" depart="27" departLane="3" />

   <vType id="vehicleE_38" length="5.505000" accel="2.128000" decel="5.359000" sigma="0.5" minGap="2.469150" maxSpeed="125.106636" guiShape="passenger" />
   <vehicle id="straightE_38" type="vehicleE_38" route="edgeE_edgeW" depart="27" departLane="3" />

   <vType id="vehicleN_39" length="4.107000" accel="3.611000" decel="3.292000" sigma="0.5" minGap="2.469150" maxSpeed="125.106636" guiShape="passenger" />
   <vehicle id="uturnN_39" type="vehicleN_39" route="edgeN_edgeN" depart="28" departLane="1" />

   <vType id="vehicleN_40" length="5.114000" accel="2.284000" decel="2.744000" sigma="0.5" minGap="2.469150" maxSpeed="125.106636" guiShape="passenger" />
   <vehicle id="uturnN_40" type="vehicleN_40" route="edgeN_edgeN" depart="29" departLane="1" />

   <vType id="vehicleE_41" length="4.527000" accel="3.536000" decel="6.836000" sigma="0.5" minGap="2.469150" maxSpeed="125.106636" guiShape="passenger" />
   <vehicle id="leftE_41" type="vehicleE_41" route="edgeE_edgeS" depart="29" departLane="4" />

   <vType id="vehicleS_42" length="4.056000" accel="3.292000" decel="6.451000" sigma="0.5" minGap="2.469150" maxSpeed="125.106636" guiShape="passenger" />
   <vehicle id="uturnS_42" type="vehicleS_42" route="edgeS_edgeS" depart="30" departLane="1" />

   <vType id="vehicleN_43" length="5.426000" accel="3.605000" decel="6.130000" sigma="0.5" minGap="2.469150" maxSpeed="125.106636" guiShape="passenger" />
   <vehicle id="uturnN_43" type="vehicleN_43" route="edgeN_edgeN" depart="31" departLane="1" />

   <vType id="vehicleW_44" length="4.469000" accel="3.533000" decel="6.093000" sigma="0.5" minGap="2.469150" maxSpeed="125.106636" guiShape="passenger" />
   <vehicle id="straightW_44" type="vehicleW_44" route="edgeW_edgeE" depart="31" departLane="2" />

   <vType id="vehicleE_45" length="4.066000" accel="3.439000" decel="6.339000" sigma="0.5" minGap="2.469150" maxSpeed="125.106636" guiShape="passenger" />
   <vehicle id="straightE_45" type="vehicleE_45" route="edgeE_edgeW" depart="31" departLane="2" />

   <vType id="vehicleN_46" length="4.500000" accel="3.357000" decel="6.395000" sigma="0.5" minGap="2.469150" maxSpeed="125.106636" guiShape="passenger" />
   <vehicle id="uturnN_46" type="vehicleN_46" route="edgeN_edgeN" depart="32" departLane="1" />

   <vType id="vehicleS_47" length="4.588000" accel="2.491000" decel="2.890000" sigma="0.5" minGap="2.469150" maxSpeed="125.106636" guiShape="passenger" />
   <vehicle id="uturnS_47" type="vehicleS_47" route="edgeS_edgeS" depart="32" departLane="1" />

   <vType id="vehicleE_48" length="5.093000" accel="3.394000" decel="4.034000" sigma="0.5" minGap="2.469150" maxSpeed="125.106636" guiShape="passenger" />
   <vehicle id="straightE_48" type="vehicleE_48" route="edgeE_edgeW" depart="32" departLane="1" />

   <vType id="vehicleN_49" length="4.192000" accel="3.583000" decel="3.747000" sigma="0.5" minGap="2.469150" maxSpeed="125.106636" guiShape="passenger" />
   <vehicle id="uturnN_49" type="vehicleN_49" route="edgeN_edgeN" depart="33" departLane="1" />

   <vType id="vehicleS_50" length="5.182000" accel="2.547000" decel="5.236000" sigma="0.5" minGap="2.469150" maxSpeed="125.106636" guiShape="passenger" />
   <vehicle id="uturnS_50" type="vehicleS_50" route="edgeS_edgeS" depart="33" departLane="1" />

   <vType id="vehicleE_51" length="4.329000" accel="3.178000" decel="2.594000" sigma="0.5" minGap="2.469150" maxSpeed="125.106636" guiShape="passenger" />
   <vehicle id="straightE_51" type="vehicleE_51" route="edgeE_edgeW" depart="33" departLane="2" />

   <vType id="vehicleS_52" length="4.465000" accel="2.548000" decel="6.293000" sigma="0.5" minGap="2.469150" maxSpeed="125.106636" guiShape="passenger" />
   <vehicle id="uturnS_52" type="vehicleS_52" route="edgeS_edgeS" depart="34" departLane="1" />

   <vType id="vehicleE_53" length="4.606000" accel="2.689000" decel="3.879000" sigma="0.5" minGap="2.469150" maxSpeed="125.106636" guiShape="passenger" />
   <vehicle id="straightE_53" type="vehicleE_53" route="edgeE_edgeW" depart="34" departLane="2" />

   <vType id="vehicleN_54" length="4.553000" accel="3.241000" decel="3.347000" sigma="0.5" minGap="2.469150" maxSpeed="125.106636" guiShape="passenger" />
   <vehicle id="uturnN_54" type="vehicleN_54" route="edgeN_edgeN" depart="35" departLane="1" />

   <vType id="vehicleS_55" length="4.962000" accel="2.561000" decel="4.517000" sigma="0.5" minGap="2.469150" maxSpeed="125.106636" guiShape="passenger" />
   <vehicle id="uturnS_55" type="vehicleS_55" route="edgeS_edgeS" depart="36" departLane="1" />

   <vType id="vehicleE_56" length="5.598000" accel="3.222000" decel="5.466000" sigma="0.5" minGap="2.469150" maxSpeed="125.106636" guiShape="passenger" />
   <vehicle id="straightE_56" type="vehicleE_56" route="edgeE_edgeW" depart="36" departLane="3" />

   <vType id="vehicleW_57" length="3.915000" accel="2.437000" decel="4.663000" sigma="0.5" minGap="2.469150" maxSpeed="125.106636" guiShape="passenger" />
   <vehicle id="leftW_57" type="vehicleW_57" route="edgeW_edgeN" depart="38" departLane="4" />

   <vType id="vehicleE_58" length="4.907000" accel="3.194000" decel="4.265000" sigma="0.5" minGap="2.469150" maxSpeed="125.106636" guiShape="passenger" />
   <vehicle id="straightE_58" type="vehicleE_58" route="edgeE_edgeW" depart="38" departLane="4" />

   <vType id="vehicleW_59" length="5.256000" accel="2.217000" decel="4.445000" sigma="0.5" minGap="2.469150" maxSpeed="125.106636" guiShape="passenger" />
   <vehicle id="straightW_59" type="vehicleW_59" route="edgeW_edgeE" depart="39" departLane="2" />

   <vType id="vehicleN_60" length="4.707000" accel="2.895000" decel="5.029000" sigma="0.5" minGap="2.469150" maxSpeed="125.106636" guiShape="passenger" />
   <vehicle id="uturnN_60" type="vehicleN_60" route="edgeN_edgeN" depart="41" departLane="1" />

   <vType id="vehicleE_61" length="5.476000" accel="2.728000" decel="6.550000" sigma="0.5" minGap="2.469150" maxSpeed="125.106636" guiShape="passenger" />
   <vehicle id="straightE_61" type="vehicleE_61" route="edgeE_edgeW" depart="41" departLane="4" />

   <vType id="vehicleE_62" length="5.018000" accel="3.269000" decel="4.865000" sigma="0.5" minGap="2.469150" maxSpeed="125.106636" guiShape="passenger" />
   <vehicle id="straightE_62" type="vehicleE_62" route="edgeE_edgeW" depart="42" departLane="2" />

   <vType id="vehicleS_63" length="4.360000" accel="2.557000" decel="4.947000" sigma="0.5" minGap="2.469150" maxSpeed="125.106636" guiShape="passenger" />
   <vehicle id="uturnS_63" type="vehicleS_63" route="edgeS_edgeS" depart="43" departLane="1" />

   <vType id="vehicleW_64" length="5.119000" accel="3.174000" decel="2.867000" sigma="0.5" minGap="2.469150" maxSpeed="125.106636" guiShape="passenger" />
   <vehicle id="leftW_64" type="vehicleW_64" route="edgeW_edgeN" depart="43" departLane="5" />

   <vType id="vehicleE_65" length="3.983000" accel="3.376000" decel="4.289000" sigma="0.5" minGap="2.469150" maxSpeed="125.106636" guiShape="passenger" />
   <vehicle id="straightE_65" type="vehicleE_65" route="edgeE_edgeW" depart="43" departLane="1" />

   <vType id="vehicleE_66" length="5.226000" accel="3.409000" decel="6.754000" sigma="0.5" minGap="2.469150" maxSpeed="125.106636" guiShape="passenger" />
   <vehicle id="straightE_66" type="vehicleE_66" route="edgeE_edgeW" depart="44" departLane="4" />

   <vType id="vehicleS_67" length="4.571000" accel="3.115000" decel="6.075000" sigma="0.5" minGap="2.469150" maxSpeed="125.106636" guiShape="passenger" />
   <vehicle id="uturnS_67" type="vehicleS_67" route="edgeS_edgeS" depart="46" departLane="1" />

   <vType id="vehicleW_68" length="5.430000" accel="2.337000" decel="3.723000" sigma="0.5" minGap="2.469150" maxSpeed="125.106636" guiShape="passenger" />
   <vehicle id="straightW_68" type="vehicleW_68" route="edgeW_edgeE" depart="48" departLane="3" />

   <vType id="vehicleE_69" length="5.240000" accel="2.652000" decel="5.874000" sigma="0.5" minGap="2.469150" maxSpeed="125.106636" guiShape="passenger" />
   <vehicle id="straightE_69" type="vehicleE_69" route="edgeE_edgeW" depart="48" departLane="4" />

   <vType id="vehicleS_70" length="4.841000" accel="3.643000" decel="4.116000" sigma="0.5" minGap="2.469150" maxSpeed="125.106636" guiShape="passenger" />
   <vehicle id="leftS_70" type="vehicleS_70" route="edgeS_edgeW" depart="49" departLane="1" />

   <vType id="vehicleW_71" length="4.145000" accel="2.248000" decel="5.513000" sigma="0.5" minGap="2.469150" maxSpeed="125.106636" guiShape="passenger" />
   <vehicle id="leftW_71" type="vehicleW_71" route="edgeW_edgeN" depart="50" departLane="4" />

   <vType id="vehicleE_72" length="4.535000" accel="3.014000" decel="6.799000" sigma="0.5" minGap="2.469150" maxSpeed="125.106636" guiShape="passenger" />
   <vehicle id="straightE_72" type="vehicleE_72" route="edgeE_edgeW" depart="50" departLane="1" />

   <vType id="vehicleS_73" length="4.912000" accel="3.530000" decel="5.103000" sigma="0.5" minGap="2.469150" maxSpeed="125.106636" guiShape="passenger" />
   <vehicle id="uturnS_73" type="vehicleS_73" route="edgeS_edgeS" depart="51" departLane="1" />

   <vType id="vehicleE_74" length="4.228000" accel="2.992000" decel="6.217000" sigma="0.5" minGap="2.469150" maxSpeed="125.106636" guiShape="passenger" />
   <vehicle id="straightE_74" type="vehicleE_74" route="edgeE_edgeW" depart="51" departLane="2" />

   <vType id="vehicleN_75" length="5.401000" accel="3.005000" decel="3.115000" sigma="0.5" minGap="2.469150" maxSpeed="125.106636" guiShape="passenger" />
   <vehicle id="uturnN_75" type="vehicleN_75" route="edgeN_edgeN" depart="52" departLane="1" />

   <vType id="vehicleE_76" length="4.538000" accel="2.854000" decel="4.078000" sigma="0.5" minGap="2.469150" maxSpeed="125.106636" guiShape="passenger" />
   <vehicle id="straightE_76" type="vehicleE_76" route="edgeE_edgeW" depart="52" departLane="4" />

   <vType id="vehicleS_77" length="5.014000" accel="3.370000" decel="5.678000" sigma="0.5" minGap="2.469150" maxSpeed="125.106636" guiShape="passenger" />
   <vehicle id="uturnS_77" type="vehicleS_77" route="edgeS_edgeS" depart="53" departLane="1" />

   <vType id="vehicleS_78" length="4.839000" accel="2.819000" decel="4.490000" sigma="0.5" minGap="2.469150" maxSpeed="125.106636" guiShape="passenger" />
   <vehicle id="uturnS_78" type="vehicleS_78" route="edgeS_edgeS" depart="54" departLane="1" />

   <vType id="vehicleE_79" length="5.365000" accel="2.185000" decel="6.440000" sigma="0.5" minGap="2.469150" maxSpeed="125.106636" guiShape="passenger" />
   <vehicle id="straightE_79" type="vehicleE_79" route="edgeE_edgeW" depart="54" departLane="2" />

   <vType id="vehicleE_80" length="4.456000" accel="2.825000" decel="4.137000" sigma="0.5" minGap="2.469150" maxSpeed="125.106636" guiShape="passenger" />
   <vehicle id="straightE_80" type="vehicleE_80" route="edgeE_edgeW" depart="55" departLane="3" />

   <vType id="vehicleE_81" length="5.576000" accel="2.183000" decel="5.734000" sigma="0.5" minGap="2.469150" maxSpeed="125.106636" guiShape="passenger" />
   <vehicle id="leftE_81" type="vehicleE_81" route="edgeE_edgeS" depart="56" departLane="5" />

   <vType id="vehicleS_82" length="5.152000" accel="2.762000" decel="2.662000" sigma="0.5" minGap="2.469150" maxSpeed="125.106636" guiShape="passenger" />
   <vehicle id="uturnS_82" type="vehicleS_82" route="edgeS_edgeS" depart="57" departLane="1" />

   <vType id="vehicleE_83" length="5.065000" accel="2.636000" decel="5.006000" sigma="0.5" minGap="2.469150" maxSpeed="125.106636" guiShape="passenger" />
   <vehicle id="straightE_83" type="vehicleE_83" route="edgeE_edgeW" depart="57" departLane="3" />

   <vType id="vehicleS_84" length="4.218000" accel="2.237000" decel="4.929000" sigma="0.5" minGap="2.469150" maxSpeed="125.106636" guiShape="passenger" />
   <vehicle id="uturnS_84" type="vehicleS_84" route="edgeS_edgeS" depart="59" departLane="1" />

   <vType id="vehicleE_85" length="4.742000" accel="3.203000" decel="6.855000" sigma="0.5" minGap="2.469150" maxSpeed="125.106636" guiShape="passenger" />
   <vehicle id="leftE_85" type="vehicleE_85" route="edgeE_edgeS" depart="59" departLane="5" />

   <vType id="vehicleE_86" length="5.145000" accel="2.249000" decel="2.785000" sigma="0.5" minGap="2.469150" maxSpeed="125.106636" guiShape="passenger" />
   <vehicle id="straightE_86" type="vehicleE_86" route="edgeE_edgeW" depart="60" departLane="1" />

   <vType id="vehicleW_87" length="4.754000" accel="3.440000" decel="5.096000" sigma="0.5" minGap="2.469150" maxSpeed="125.106636" guiShape="passenger" />
   <vehicle id="straightW_87" type="vehicleW_87" route="edgeW_edgeE" depart="61" departLane="4" />

   <vType id="vehicleE_88" length="5.608000" accel="2.450000" decel="6.353000" sigma="0.5" minGap="2.469150" maxSpeed="125.106636" guiShape="passenger" />
   <vehicle id="straightE_88" type="vehicleE_88" route="edgeE_edgeW" depart="61" departLane="1" />

   <vType id="vehicleW_89" length="3.968000" accel="2.285000" decel="5.047000" sigma="0.5" minGap="2.469150" maxSpeed="125.106636" guiShape="passenger" />
   <vehicle id="straightW_89" type="vehicleW_89" route="edgeW_edgeE" depart="62" departLane="3" />

   <vType id="vehicleE_90" length="4.875000" accel="2.711000" decel="5.192000" sigma="0.5" minGap="2.469150" maxSpeed="125.106636" guiShape="passenger" />
   <vehicle id="straightE_90" type="vehicleE_90" route="edgeE_edgeW" depart="62" departLane="2" />

   <vType id="vehicleE_91" length="4.643000" accel="2.954000" decel="2.849000" sigma="0.5" minGap="2.469150" maxSpeed="125.106636" guiShape="passenger" />
   <vehicle id="straightE_91" type="vehicleE_91" route="edgeE_edgeW" depart="63" departLane="1" />

   <vType id="vehicleS_92" length="5.059000" accel="2.297000" decel="3.346000" sigma="0.5" minGap="2.469150" maxSpeed="125.106636" guiShape="passenger" />
   <vehicle id="uturnS_92" type="vehicleS_92" route="edgeS_edgeS" depart="64" departLane="1" />

   <vType id="vehicleW_93" length="4.682000" accel="2.995000" decel="3.859000" sigma="0.5" minGap="2.469150" maxSpeed="125.106636" guiShape="passenger" />
   <vehicle id="leftW_93" type="vehicleW_93" route="edgeW_edgeN" depart="64" departLane="4" />

   <vType id="vehicleE_94" length="5.417000" accel="2.160000" decel="3.607000" sigma="0.5" minGap="2.469150" maxSpeed="125.106636" guiShape="passenger" />
   <vehicle id="straightE_94" type="vehicleE_94" route="edgeE_edgeW" depart="64" departLane="3" />

   <vType id="vehicleS_95" length="4.425000" accel="3.242000" decel="5.074000" sigma="0.5" minGap="2.469150" maxSpeed="125.106636" guiShape="passenger" />
   <vehicle id="uturnS_95" type="vehicleS_95" route="edgeS_edgeS" depart="67" departLane="1" />

   <vType id="vehicleE_96" length="5.130000" accel="3.552000" decel="4.774000" sigma="0.5" minGap="2.469150" maxSpeed="125.106636" guiShape="passenger" />
   <vehicle id="straightE_96" type="vehicleE_96" route="edgeE_edgeW" depart="67" departLane="4" />

   <vType id="vehicleS_97" length="5.084000" accel="3.421000" decel="5.153000" sigma="0.5" minGap="2.469150" maxSpeed="125.106636" guiShape="passenger" />
   <vehicle id="uturnS_97" type="vehicleS_97" route="edgeS_edgeS" depart="69" departLane="1" />

   <vType id="vehicleW_98" length="5.349000" accel="2.967000" decel="5.922000" sigma="0.5" minGap="2.469150" maxSpeed="125.106636" guiShape="passenger" />
   <vehicle id="straightW_98" type="vehicleW_98" route="edgeW_edgeE" depart="69" departLane="2" />

   <vType id="vehicleE_99" length="5.519000" accel="2.336000" decel="5.145000" sigma="0.5" minGap="2.469150" maxSpeed="125.106636" guiShape="passenger" />
   <vehicle id="straightE_99" type="vehicleE_99" route="edgeE_edgeW" depart="69" departLane="4" />

   <vType id="vehicleE_100" length="4.161000" accel="2.704000" decel="4.752000" sigma="0.5" minGap="2.469150" maxSpeed="125.106636" guiShape="passenger" />
   <vehicle id="leftE_100" type="vehicleE_100" route="edgeE_edgeS" depart="70" departLane="5" />

   <vType id="vehicleE_101" length="5.616000" accel="2.692000" decel="4.836000" sigma="0.5" minGap="2.469150" maxSpeed="125.106636" guiShape="passenger" />
   <vehicle id="straightE_101" type="vehicleE_101" route="edgeE_edgeW" depart="71" departLane="1" />

   <vType id="vehicleE_102" length="5.232000" accel="3.045000" decel="5.908000" sigma="0.5" minGap="2.469150" maxSpeed="125.106636" guiShape="passenger" />
   <vehicle id="straightE_102" type="vehicleE_102" route="edgeE_edgeW" depart="72" departLane="2" />

   <vType id="vehicleS_103" length="5.456000" accel="2.820000" decel="2.712000" sigma="0.5" minGap="2.469150" maxSpeed="125.106636" guiShape="passenger" />
   <vehicle id="uturnS_103" type="vehicleS_103" route="edgeS_edgeS" depart="73" departLane="1" />

   <vType id="vehicleW_104" length="4.275000" accel="3.390000" decel="3.082000" sigma="0.5" minGap="2.469150" maxSpeed="125.106636" guiShape="passenger" />
   <vehicle id="straightW_104" type="vehicleW_104" route="edgeW_edgeE" depart="74" departLane="1" />

   <vType id="vehicleN_105" length="4.396000" accel="3.173000" decel="4.402000" sigma="0.5" minGap="2.469150" maxSpeed="125.106636" guiShape="passenger" />
   <vehicle id="uturnN_105" type="vehicleN_105" route="edgeN_edgeN" depart="75" departLane="1" />

   <vType id="vehicleE_106" length="4.214000" accel="3.004000" decel="5.849000" sigma="0.5" minGap="2.469150" maxSpeed="125.106636" guiShape="passenger" />
   <vehicle id="leftE_106" type="vehicleE_106" route="edgeE_edgeS" depart="75" departLane="4" />

   <vType id="vehicleS_107" length="4.618000" accel="3.538000" decel="4.806000" sigma="0.5" minGap="2.469150" maxSpeed="125.106636" guiShape="passenger" />
   <vehicle id="uturnS_107" type="vehicleS_107" route="edgeS_edgeS" depart="76" departLane="1" />

   <vType id="vehicleE_108" length="4.927000" accel="3.642000" decel="4.727000" sigma="0.5" minGap="2.469150" maxSpeed="125.106636" guiShape="passenger" />
   <vehicle id="straightE_108" type="vehicleE_108" route="edgeE_edgeW" depart="76" departLane="2" />

   <vType id="vehicleE_109" length="4.722000" accel="3.505000" decel="4.253000" sigma="0.5" minGap="2.469150" maxSpeed="125.106636" guiShape="passenger" />