<routes>
   <personFlow id="pRegN" begin="0" end="3000" personsPerHour="381.120271">
        <walk edges="edgeN_O edgeS_I" speed="1.876424"/>
    </personFlow>
   <personFlow id="pRegS" begin="0" end="3000" personsPerHour="1044.473898">
        <walk edges="edgeS_O edgeN_I" speed="1.856155"/>
    </personFlow>
   <personFlow id="pRegW" begin="0" end="3000" personsPerHour="204.792719">
        <walk edges="edgeW_O edgeE_I" speed="1.397979"/>
    </personFlow>
   <personFlow id="pRegE" begin="0" end="3000" personsPerHour="738.411567">
        <walk edges="edgeE_O edgeW_I" speed="1.481504"/>
    </personFlow>
   <personFlow id="pOppN" begin="0" end="3000" personsPerHour="477.061726" departPos="1000.000000">
        <walk edges="edgeN_I edgeS_O" speed="1.237774"/>
    </personFlow>
   <personFlow id="pOppS" begin="0" end="3000" personsPerHour="142.603464" departPos="1000.000000">
        <walk edges="edgeS_I edgeN_O" speed="2.019243"/>
    </personFlow>
   <personFlow id="pOppW" begin="0" end="3000" personsPerHour="1020.431479" departPos="900.000000">
        <walk edges="edgeW_I edgeE_O" speed="1.753579"/>
    </personFlow>
   <personFlow id="pOppE" begin="0" end="3000" personsPerHour="221.557166" departPos="900.000000">
        <walk edges="edgeE_I edgeW_O" speed="0.990658"/>
    </personFlow>

    <route id="edgeN_edgeN" edges="edgeN_O edgeN_I" />
    <route id="edgeN_edgeS" edges="edgeN_O edgeS_I" />
    <route id="edgeN_edgeW" edges="edgeN_O edgeW_I" />
    <route id="edgeN_edgeE" edges="edgeN_O edgeE_I" />
    <route id="edgeS_edgeN" edges="edgeS_O edgeN_I" />
    <route id="edgeS_edgeS" edges="edgeS_O edgeS_I" />
    <route id="edgeS_edgeW" edges="edgeS_O edgeW_I" />
    <route id="edgeS_edgeE" edges="edgeS_O edgeE_I" />
    <route id="edgeW_edgeN" edges="edgeW_O edgeN_I" />
    <route id="edgeW_edgeS" edges="edgeW_O edgeS_I" />
    <route id="edgeW_edgeW" edges="edgeW_O edgeW_I" />
    <route id="edgeW_edgeE" edges="edgeW_O edgeE_I" />
    <route id="edgeE_edgeN" edges="edgeE_O edgeN_I" />
    <route id="edgeE_edgeS" edges="edgeE_O edgeS_I" />
    <route id="edgeE_edgeW" edges="edgeE_O edgeW_I" />
    <route id="edgeE_edgeE" edges="edgeE_O edgeE_I" />
    
   <vType id="vehicleS_0" length="4.320000" accel="3.517000" decel="5.567000" sigma="0.5" minGap="2.600362" maxSpeed="129.995989" guiShape="passenger" />
   <vehicle id="straightS_0" type="vehicleS_0" route="edgeS_edgeN" depart="0" departLane="2" />

   <vType id="vehicleE_1" length="4.335000" accel="3.300000" decel="5.085000" sigma="0.5" minGap="2.600362" maxSpeed="129.995989" guiShape="passenger" />
   <vehicle id="straightE_1" type="vehicleE_1" route="edgeE_edgeW" depart="0" departLane="5" />

   <vType id="vehicleN_2" length="5.264000" accel="2.338000" decel="6.106000" sigma="0.5" minGap="2.600362" maxSpeed="129.995989" guiShape="passenger" />
   <vehicle id="straightN_2" type="vehicleN_2" route="edgeN_edgeS" depart="1" departLane="5" />

   <vType id="vehicleS_3" length="5.501000" accel="2.871000" decel="3.129000" sigma="0.5" minGap="2.600362" maxSpeed="129.995989" guiShape="passenger" />
   <vehicle id="leftS_3" type="vehicleS_3" route="edgeS_edgeW" depart="1" departLane="5" />

   <vType id="vehicleN_4" length="4.700000" accel="2.529000" decel="6.592000" sigma="0.5" minGap="2.600362" maxSpeed="129.995989" guiShape="passenger" />
   <vehicle id="leftN_4" type="vehicleN_4" route="edgeN_edgeE" depart="2" departLane="5" />

   <vType id="vehicleE_5" length="4.426000" accel="2.456000" decel="3.714000" sigma="0.5" minGap="2.600362" maxSpeed="129.995989" guiShape="passenger" />
   <vehicle id="straightE_5" type="vehicleE_5" route="edgeE_edgeW" depart="3" departLane="2" />

   <vType id="vehicleE_6" length="5.039000" accel="3.461000" decel="5.595000" sigma="0.5" minGap="2.600362" maxSpeed="129.995989" guiShape="passenger" />
   <vehicle id="straightE_6" type="vehicleE_6" route="edgeE_edgeW" depart="4" departLane="2" />

   <vType id="vehicleS_7" length="4.224000" accel="2.940000" decel="6.873000" sigma="0.5" minGap="2.600362" maxSpeed="129.995989" guiShape="passenger" />
   <vehicle id="straightS_7" type="vehicleS_7" route="edgeS_edgeN" depart="5" departLane="3" />

   <vType id="vehicleS_8" length="4.468000" accel="2.760000" decel="3.623000" sigma="0.5" minGap="2.600362" maxSpeed="129.995989" guiShape="passenger" />
   <vehicle id="leftS_8" type="vehicleS_8" route="edgeS_edgeW" depart="6" departLane="5" />

   <vType id="vehicleW_9" length="5.160000" accel="3.198000" decel="5.860000" sigma="0.5" minGap="2.600362" maxSpeed="129.995989" guiShape="passenger" />
   <vehicle id="straightW_9" type="vehicleW_9" route="edgeW_edgeE" depart="7" departLane="5" />

   <vType id="vehicleS_10" length="4.781000" accel="2.474000" decel="2.939000" sigma="0.5" minGap="2.600362" maxSpeed="129.995989" guiShape="passenger" />
   <vehicle id="uturnS_10" type="vehicleS_10" route="edgeS_edgeS" depart="8" departLane="5" />

   <vType id="vehicleW_11" length="5.236000" accel="3.009000" decel="3.007000" sigma="0.5" minGap="2.600362" maxSpeed="129.995989" guiShape="passenger" />
   <vehicle id="straightW_11" type="vehicleW_11" route="edgeW_edgeE" depart="8" departLane="5" />

   <vType id="vehicleS_12" length="5.478000" accel="3.426000" decel="3.220000" sigma="0.5" minGap="2.600362" maxSpeed="129.995989" guiShape="passenger" />
   <vehicle id="straightS_12" type="vehicleS_12" route="edgeS_edgeN" depart="9" departLane="4" />

   <vType id="vehicleN_13" length="3.966000" accel="3.494000" decel="5.746000" sigma="0.5" minGap="2.600362" maxSpeed="129.995989" guiShape="passenger" />
   <vehicle id="leftN_13" type="vehicleN_13" route="edgeN_edgeE" depart="10" departLane="5" />

   <vType id="vehicleW_14" length="5.315000" accel="3.147000" decel="3.572000" sigma="0.5" minGap="2.600362" maxSpeed="129.995989" guiShape="passenger" />
   <vehicle id="straightW_14" type="vehicleW_14" route="edgeW_edgeE" depart="10" departLane="4" />

   <vType id="vehicleE_15" length="3.992000" accel="3.828000" decel="6.410000" sigma="0.5" minGap="2.600362" maxSpeed="129.995989" guiShape="passenger" />
   <vehicle id="straightE_15" type="vehicleE_15" route="edgeE_edgeW" depart="11" departLane="4" />

   <vType id="vehicleN_16" length="4.874000" accel="2.455000" decel="5.797000" sigma="0.5" minGap="2.600362" maxSpeed="129.995989" guiShape="passenger" />
   <vehicle id="straightN_16" type="vehicleN_16" route="edgeN_edgeS" depart="12" departLane="2" />

   <vType id="vehicleE_17" length="5.485000" accel="2.594000" decel="4.945000" sigma="0.5" minGap="2.600362" maxSpeed="129.995989" guiShape="passenger" />
   <vehicle id="straightE_17" type="vehicleE_17" route="edgeE_edgeW" depart="12" departLane="5" />

   <vType id="vehicleS_18" length="4.562000" accel="3.781000" decel="4.627000" sigma="0.5" minGap="2.600362" maxSpeed="129.995989" guiShape="passenger" />
   <vehicle id="straightS_18" type="vehicleS_18" route="edgeS_edgeN" depart="14" departLane="3" />

   <vType id="vehicleS_19" length="4.075000" accel="3.347000" decel="3.698000" sigma="0.5" minGap="2.600362" maxSpeed="129.995989" guiShape="passenger" />
   <vehicle id="straightS_19" type="vehicleS_19" route="edgeS_edgeN" depart="15" departLane="2" />

   <vType id="vehicleE_20" length="5.037000" accel="2.674000" decel="3.294000" sigma="0.5" minGap="2.600362" maxSpeed="129.995989" guiShape="passenger" />
   <vehicle id="straightE_20" type="vehicleE_20" route="edgeE_edgeW" depart="15" departLane="5" />

   <vType id="vehicleN_21" length="4.616000" accel="2.480000" decel="5.493000" sigma="0.5" minGap="2.600362" maxSpeed="129.995989" guiShape="passenger" />
   <vehicle id="straightN_21" type="vehicleN_21" route="edgeN_edgeS" depart="16" departLane="4" />

   <vType id="vehicleW_22" length="4.507000" accel="3.719000" decel="3.780000" sigma="0.5" minGap="2.600362" maxSpeed="129.995989" guiShape="passenger" />
   <vehicle id="straightW_22" type="vehicleW_22" route="edgeW_edgeE" depart="17" departLane="3" />

   <vType id="vehicleN_23" length="4.705000" accel="3.740000" decel="3.057000" sigma="0.5" minGap="2.600362" maxSpeed="129.995989" guiShape="passenger" />
   <vehicle id="straightN_23" type="vehicleN_23" route="edgeN_edgeS" depart="18" departLane="2" />

   <vType id="vehicleS_24" length="5.306000" accel="3.893000" decel="6.609000" sigma="0.5" minGap="2.600362" maxSpeed="129.995989" guiShape="passenger" />
   <vehicle id="uturnS_24" type="vehicleS_24" route="edgeS_edgeS" depart="18" departLane="5" />

   <vType id="vehicleE_25" length="4.305000" accel="2.975000" decel="2.987000" sigma="0.5" minGap="2.600362" maxSpeed="129.995989" guiShape="passenger" />
   <vehicle id="straightE_25" type="vehicleE_25" route="edgeE_edgeW" depart="18" departLane="5" />

   <vType id="vehicleN_26" length="5.452000" accel="3.596000" decel="3.933000" sigma="0.5" minGap="2.600362" maxSpeed="129.995989" guiShape="passenger" />
   <vehicle id="straightN_26" type="vehicleN_26" route="edgeN_edgeS" depart="19" departLane="5" />

   <vType id="vehicleS_27" length="5.520000" accel="3.263000" decel="5.005000" sigma="0.5" minGap="2.600362" maxSpeed="129.995989" guiShape="passenger" />
   <vehicle id="straightS_27" type="vehicleS_27" route="edgeS_edgeN" depart="19" departLane="4" />

   <vType id="vehicleW_28" length="4.770000" accel="3.705000" decel="3.399000" sigma="0.5" minGap="2.600362" maxSpeed="129.995989" guiShape="passenger" />
   <vehicle id="straightW_28" type="vehicleW_28" route="edgeW_edgeE" depart="19" departLane="2" />

   <vType id="vehicleN_29" length="5.348000" accel="2.980000" decel="6.673000" sigma="0.5" minGap="2.600362" maxSpeed="129.995989" guiShape="passenger" />
   <vehicle id="leftN_29" type="vehicleN_29" route="edgeN_edgeE" depart="20" departLane="5" />

   <vType id="vehicleW_30" length="5.019000" accel="3.240000" decel="4.063000" sigma="0.5" minGap="2.600362" maxSpeed="129.995989" guiShape="passenger" />
   <vehicle id="straightW_30" type="vehicleW_30" route="edgeW_edgeE" depart="20" departLane="4" />

   <vType id="vehicleE_31" length="4.345000" accel="2.967000" decel="5.546000" sigma="0.5" minGap="2.600362" maxSpeed="129.995989" guiShape="passenger" />
   <vehicle id="straightE_31" type="vehicleE_31" route="edgeE_edgeW" depart="20" departLane="4" />

   <vType id="vehicleE_32" length="4.867000" accel="2.489000" decel="4.986000" sigma="0.5" minGap="2.600362" maxSpeed="129.995989" guiShape="passenger" />
   <vehicle id="straightE_32" type="vehicleE_32" route="edgeE_edgeW" depart="21" departLane="4" />

   <vType id="vehicleN_33" length="4.071000" accel="2.722000" decel="3.932000" sigma="0.5" minGap="2.600362" maxSpeed="129.995989" guiShape="passenger" />
   <vehicle id="straightN_33" type="vehicleN_33" route="edgeN_edgeS" depart="22" departLane="5" />

   <vType id="vehicleW_34" length="4.443000" accel="3.399000" decel="6.662000" sigma="0.5" minGap="2.600362" maxSpeed="129.995989" guiShape="passenger" />
   <vehicle id="straightW_34" type="vehicleW_34" route="edgeW_edgeE" depart="23" departLane="3" />

   <vType id="vehicleW_35" length="4.300000" accel="2.881000" decel="5.612000" sigma="0.5" minGap="2.600362" maxSpeed="129.995989" guiShape="passenger" />
   <vehicle id="straightW_35" type="vehicleW_35" route="edgeW_edgeE" depart="24" departLane="4" />

   <vType id="vehicleN_36" length="4.042000" accel="3.352000" decel="6.204000" sigma="0.5" minGap="2.600362" maxSpeed="129.995989" guiShape="passenger" />
   <vehicle id="rightN_36" type="vehicleN_36" route="edgeN_edgeW" depart="25" departLane="1" />

   <vType id="vehicleS_37" length="4.986000" accel="2.751000" decel="5.836000" sigma="0.5" minGap="2.600362" maxSpeed="129.995989" guiShape="passenger" />
   <vehicle id="rightS_37" type="vehicleS_37" route="edgeS_edgeE" depart="25" departLane="2" />

   <vType id="vehicleE_38" length="5.073000" accel="2.568000" decel="2.892000" sigma="0.5" minGap="2.600362" maxSpeed="129.995989" guiShape="passenger" />
   <vehicle id="rightE_38" type="vehicleE_38" route="edgeE_edgeN" depart="25" departLane="1" />

   <vType id="vehicleS_39" length="4.457000" accel="3.780000" decel="6.065000" sigma="0.5" minGap="2.600362" maxSpeed="129.995989" guiShape="passenger" />
   <vehicle id="leftS_39" type="vehicleS_39" route="edgeS_edgeW" depart="26" departLane="5" />

   <vType id="vehicleE_40" length="4.126000" accel="3.588000" decel="6.433000" sigma="0.5" minGap="2.600362" maxSpeed="129.995989" guiShape="passenger" />
   <vehicle id="straightE_40" type="vehicleE_40" route="edgeE_edgeW" depart="26" departLane="5" />

   <vType id="vehicleE_41" length="5.248000" accel="2.613000" decel="4.463000" sigma="0.5" minGap="2.600362" maxSpeed="129.995989" guiShape="passenger" />
   <vehicle id="straightE_41" type="vehicleE_41" route="edgeE_edgeW" depart="27" departLane="3" />

   <vType id="vehicleS_42" length="5.252000" accel="3.723000" decel="6.127000" sigma="0.5" minGap="2.600362" maxSpeed="129.995989" guiShape="passenger" />
   <vehicle id="rightS_42" type="vehicleS_42" route="edgeS_edgeE" depart="28" departLane="2" />

   <vType id="vehicleW_43" length="4.576000" accel="2.390000" decel="4.707000" sigma="0.5" minGap="2.600362" maxSpeed="129.995989" guiShape="passenger" />
   <vehicle id="straightW_43" type="vehicleW_43" route="edgeW_edgeE" depart="28" departLane="3" />

   <vType id="vehicleS_44" length="4.327000" accel="2.366000" decel="3.548000" sigma="0.5" minGap="2.600362" maxSpeed="129.995989" guiShape="passenger" />
   <vehicle id="rightS_44" type="vehicleS_44" route="edgeS_edgeE" depart="29" departLane="2" />

   <vType id="vehicleE_45" length="4.526000" accel="3.150000" decel="5.579000" sigma="0.5" minGap="2.600362" maxSpeed="129.995989" guiShape="passenger" />
   <vehicle id="straightE_45" type="vehicleE_45" route="edgeE_edgeW" depart="29" departLane="4" />

   <vType id="vehicleS_46" length="4.248000" accel="3.882000" decel="3.850000" sigma="0.5" minGap="2.600362" maxSpeed="129.995989" guiShape="passenger" />
   <vehicle id="uturnS_46" type="vehicleS_46" route="edgeS_edgeS" depart="30" departLane="5" />

   <vType id="vehicleW_47" length="5.133000" accel="2.834000" decel="5.273000" sigma="0.5" minGap="2.600362" maxSpeed="129.995989" guiShape="passenger" />
   <vehicle id="straightW_47" type="vehicleW_47" route="edgeW_edgeE" depart="30" departLane="2" />

   <vType id="vehicleS_48" length="3.963000" accel="3.822000" decel="4.990000" sigma="0.5" minGap="2.600362" maxSpeed="129.995989" guiShape="passenger" />
   <vehicle id="straightS_48" type="vehicleS_48" route="edgeS_edgeN" depart="31" departLane="3" />

   <vType id="vehicleE_49" length="4.492000" accel="2.835000" decel="6.282000" sigma="0.5" minGap="2.600362" maxSpeed="129.995989" guiShape="passenger" />
   <vehicle id="straightE_49" type="vehicleE_49" route="edgeE_edgeW" depart="31" departLane="4" />

   <vType id="vehicleS_50" length="4.571000" accel="3.536000" decel="3.468000" sigma="0.5" minGap="2.600362" maxSpeed="129.995989" guiShape="passenger" />
   <vehicle id="straightS_50" type="vehicleS_50" route="edgeS_edgeN" depart="33" departLane="4" />

   <vType id="vehicleN_51" length="5.225000" accel="3.307000" decel="4.087000" sigma="0.5" minGap="2.600362" maxSpeed="129.995989" guiShape="passenger" />
   <vehicle id="straightN_51" type="vehicleN_51" route="edgeN_edgeS" depart="34" departLane="5" />

   <vType id="vehicleE_52" length="4.979000" accel="2.869000" decel="6.159000" sigma="0.5" minGap="2.600362" maxSpeed="129.995989" guiShape="passenger" />
   <vehicle id="straightE_52" type="vehicleE_52" route="edgeE_edgeW" depart="35" departLane="3" />

   <vType id="vehicleS_53" length="4.000000" accel="2.723000" decel="4.725000" sigma="0.5" minGap="2.600362" maxSpeed="129.995989" guiShape="passenger" />
   <vehicle id="straightS_53" type="vehicleS_53" route="edgeS_edgeN" depart="36" departLane="2" />

   <vType id="vehicleN_54" length="5.398000" accel="3.717000" decel="6.438000" sigma="0.5" minGap="2.600362" maxSpeed="129.995989" guiShape="passenger" />
   <vehicle id="straightN_54" type="vehicleN_54" route="edgeN_edgeS" depart="38" departLane="5" />

   <vType id="vehicleS_55" length="5.081000" accel="3.078000" decel="5.069000" sigma="0.5" minGap="2.600362" maxSpeed="129.995989" guiShape="passenger" />
   <vehicle id="rightS_55" type="vehicleS_55" route="edgeS_edgeE" depart="38" departLane="1" />

   <vType id="vehicleS_56" length="4.987000" accel="3.564000" decel="4.918000" sigma="0.5" minGap="2.600362" maxSpeed="129.995989" guiShape="passenger" />
   <vehicle id="straightS_56" type="vehicleS_56" route="edgeS_edgeN" depart="42" departLane="3" />

   <vType id="vehicleE_57" length="4.398000" accel="2.844000" decel="4.997000" sigma="0.5" minGap="2.600362" maxSpeed="129.995989" guiShape="passenger" />
   <vehicle id="straightE_57" type="vehicleE_57" route="edgeE_edgeW" depart="42" departLane="3" />

   <vType id="vehicleN_58" length="4.207000" accel="2.673000" decel="4.474000" sigma="0.5" minGap="2.600362" maxSpeed="129.995989" guiShape="passenger" />
   <vehicle id="straightN_58" type="vehicleN_58" route="edgeN_edgeS" depart="43" departLane="4" />

   <vType id="vehicleE_59" length="5.417000" accel="3.271000" decel="5.645000" sigma="0.5" minGap="2.600362" maxSpeed="129.995989" guiShape="passenger" />
   <vehicle id="straightE_59" type="vehicleE_59" route="edgeE_edgeW" depart="43" departLane="5" />

   <vType id="vehicleS_60" length="5.245000" accel="3.497000" decel="6.251000" sigma="0.5" minGap="2.600362" maxSpeed="129.995989" guiShape="passenger" />
   <vehicle id="straightS_60" type="vehicleS_60" route="edgeS_edgeN" depart="47" departLane="3" />

   <vType id="vehicleE_61" length="5.356000" accel="2.621000" decel="3.828000" sigma="0.5" minGap="2.600362" maxSpeed="129.995989" guiShape="passenger" />
   <vehicle id="straightE_61" type="vehicleE_61" route="edgeE_edgeW" depart="48" departLane="4" />

   <vType id="vehicleN_62" length="5.186000" accel="2.940000" decel="5.881000" sigma="0.5" minGap="2.600362" maxSpeed="129.995989" guiShape="passenger" />
   <vehicle id="straightN_62" type="vehicleN_62" route="edgeN_edgeS" depart="49" departLane="5" />

   <vType id="vehicleS_63" length="3.992000" accel="3.199000" decel="6.916000" sigma="0.5" minGap="2.600362" maxSpeed="129.995989" guiShape="passenger" />
   <vehicle id="leftS_63" type="vehicleS_63" route="edgeS_edgeW" depart="49" departLane="5" />

   <vType id="vehicleE_64" length="4.025000" accel="2.378000" decel="3.774000" sigma="0.5" minGap="2.600362" maxSpeed="129.995989" guiShape="passenger" />
   <vehicle id="uturnE_64" type="vehicleE_64" route="edgeE_edgeE" depart="49" departLane="5" />

   <vType id="vehicleN_65" length="4.709000" accel="2.741000" decel="4.282000" sigma="0.5" minGap="2.600362" maxSpeed="129.995989" guiShape="passenger" />
   <vehicle id="rightN_65" type="vehicleN_65" route="edgeN_edgeW" depart="51" departLane="1" />

   <vType id="vehicleS_66" length="4.446000" accel="3.433000" decel="6.105000" sigma="0.5" minGap="2.600362" maxSpeed="129.995989" guiShape="passenger" />
   <vehicle id="straightS_66" type="vehicleS_66" route="edgeS_edgeN" depart="54" departLane="2" />

   <vType id="vehicleS_67" length="4.984000" accel="3.666000" decel="5.695000" sigma="0.5" minGap="2.600362" maxSpeed="129.995989" guiShape="passenger" />
   <vehicle id="uturnS_67" type="vehicleS_67" route="edgeS_edgeS" depart="56" departLane="5" />

   <vType id="vehicleS_68" length="4.827000" accel="3.108000" decel="4.560000" sigma="0.5" minGap="2.600362" maxSpeed="129.995989" guiShape="passenger" />
   <vehicle id="rightS_68" type="vehicleS_68" route="edgeS_edgeE" depart="57" departLane="2" />

   <vType id="vehicleE_69" length="4.410000" accel="3.056000" decel="5.875000" sigma="0.5" minGap="2.600362" maxSpeed="129.995989" guiShape="passenger" />
   <vehicle id="rightE_69" type="vehicleE_69" route="edgeE_edgeN" depart="57" departLane="1" />

   <vType id="vehicleS_70" length="4.920000" accel="3.749000" decel="5.062000" sigma="0.5" minGap="2.600362" maxSpeed="129.995989" guiShape="passenger" />
   <vehicle id="straightS_70" type="vehicleS_70" route="edgeS_edgeN" depart="59" departLane="3" />

   <vType id="vehicleW_71" length="4.747000" accel="3.552000" decel="5.625000" sigma="0.5" minGap="2.600362" maxSpeed="129.995989" guiShape="passenger" />
   <vehicle id="straightW_71" type="vehicleW_71" route="edgeW_edgeE" depart="59" departLane="5" />

   <vType id="vehicleN_72" length="4.612000" accel="2.720000" decel="5.514000" sigma="0.5" minGap="2.600362" maxSpeed="129.995989" guiShape="passenger" />
   <vehicle id="straightN_72" type="vehicleN_72" route="edgeN_edgeS" depart="60" departLane="4" />

   <vType id="vehicleS_73" length="4.397000" accel="2.734000" decel="3.246000" sigma="0.5" minGap="2.600362" maxSpeed="129.995989" guiShape="passenger" />
   <vehicle id="straightS_73" type="vehicleS_73" route="edgeS_edgeN" depart="61" departLane="3" />

   <vType id="vehicleN_74" length="5.184000" accel="3.291000" decel="6.835000" sigma="0.5" minGap="2.600362" maxSpeed="129.995989" guiShape="passenger" />
   <vehicle id="straightN_74" type="vehicleN_74" route="edgeN_edgeS" depart="63" departLane="3" />

   <vType id="vehicleS_75" length="4.447000" accel="3.471000" decel="3.270000" sigma="0.5" minGap="2.600362" maxSpeed="129.995989" guiShape="passenger" />
   <vehicle id="straightS_75" type="vehicleS_75" route="edgeS_edgeN" depart="63" departLane="2" />

   <vType id="vehicleS_76" length="4.751000" accel="3.737000" decel="5.138000" sigma="0.5" minGap="2.600362" maxSpeed="129.995989" guiShape="passenger" />
   <vehicle id="rightS_76" type="vehicleS_76" route="edgeS_edgeE" depart="64" departLane="2" />

   <vType id="vehicleS_77" length="4.144000" accel="2.433000" decel="4.795000" sigma="0.5" minGap="2.600362" maxSpeed="129.995989" guiShape="passenger" />
   <vehicle id="rightS_77" type="vehicleS_77" route="edgeS_edgeE" depart="65" departLane="1" />

   <vType id="vehicleW_78" length="5.488000" accel="2.465000" decel="3.778000" sigma="0.5" minGap="2.600362" maxSpeed="129.995989" guiShape="passenger" />
   <vehicle id="straightW_78" type="vehicleW_78" route="edgeW_edgeE" depart="65" departLane="5" />

   <vType id="vehicleS_79" length="4.686000" accel="3.043000" decel="6.333000" sigma="0.5" minGap="2.600362" maxSpeed="129.995989" guiShape="passenger" />
   <vehicle id="straightS_79" type="vehicleS_79" route="edgeS_edgeN" depart="66" departLane="5" />

   <vType id="vehicleE_80" length="5.024000" accel="2.581000" decel="3.467000" sigma="0.5" minGap="2.600362" maxSpeed="129.995989" guiShape="passenger" />
   <vehicle id="straightE_80" type="vehicleE_80" route="edgeE_edgeW" depart="67" departLane="2" />

   <vType id="vehicleN_81" length="5.070000" accel="3.086000" decel="2.878000" sigma="0.5" minGap="2.600362" maxSpeed="129.995989" guiShape="passenger" />
   <vehicle id="straightN_81" type="vehicleN_81" route="edgeN_edgeS" depart="68" departLane="4" />

   <vType id="vehicleE_82" length="4.456000" accel="3.537000" decel="5.118000" sigma="0.5" minGap="2.600362" maxSpeed="129.995989" guiShape="passenger" />
   <vehicle id="straightE_82" type="vehicleE_82" route="edgeE_edgeW" depart="71" departLane="4" />

   <vType id="vehicleN_83" length="4.665000" accel="3.293000" decel="6.455000" sigma="0.5" minGap="2.600362" maxSpeed="129.995989" guiShape="passenger" />
   <vehicle id="straightN_83" type="vehicleN_83" route="edgeN_edgeS" depart="73" departLane="4" />

   <vType id="vehicleW_84" length="5.046000" accel="3.717000" decel="5.193000" sigma="0.5" minGap="2.600362" maxSpeed="129.995989" guiShape="passenger" />
   <vehicle id="straightW_84" type="vehicleW_84" route="edgeW_edgeE" depart="73" departLane="2" />

   <vType id="vehicleS_85" length="5.178000" accel="3.087000" decel="5.462000" sigma="0.5" minGap="2.600362" maxSpeed="129.995989" guiShape="passenger" />
   <vehicle id="leftS_85" type="vehicleS_85" route="edgeS_edgeW" depart="74" departLane="5" />

   <vType id="vehicleW_86" length="4.497000" accel="3.410000" decel="6.323000" sigma="0.5" minGap="2.600362" maxSpeed="129.995989" guiShape="passenger" />
   <vehicle id="straightW_86" type="vehicleW_86" route="edgeW_edgeE" depart="75" departLane="4" />

   <vType id="vehicleN_87" length="4.367000" accel="2.515000" decel="5.967000" sigma="0.5" minGap="2.600362" maxSpeed="129.995989" guiShape="passenger" />
   <vehicle id="leftN_87" type="vehicleN_87" route="edgeN_edgeE" depart="77" departLane="5" />

   <vType id="vehicleN_88" length="5.178000" accel="3.338000" decel="5.915000" sigma="0.5" minGap="2.600362" maxSpeed="129.995989" guiShape="passenger" />
   <vehicle id="straightN_88" type="vehicleN_88" route="edgeN_edgeS" depart="78" departLane="3" />

   <vType id="vehicleS_89" length="4.424000" accel="3.750000" decel="4.765000" sigma="0.5" minGap="2.600362" maxSpeed="129.995989" guiShape="passenger" />
   <vehicle id="leftS_89" type="vehicleS_89" route="edgeS_edgeW" depart="78" departLane="5" />

   <vType id="vehicleN_90" length="4.847000" accel="3.219000" decel="3.131000" sigma="0.5" minGap="2.600362" maxSpeed="129.995989" guiShape="passenger" />
   <vehicle id="leftN_90" type="vehicleN_90" route="edgeN_edgeE" depart="79" departLane="5" />

   <vType id="vehicleW_91" length="4.763000" accel="3.485000" decel="4.866000" sigma="0.5" minGap="2.600362" maxSpeed="129.995989" guiShape="passenger" />
   <vehicle id="straightW_91" type="vehicleW_91" route="edgeW_edgeE" depart="79" departLane="4" />

   <vType id="vehicleE_92" length="4.925000" accel="3.533000" decel="3.312000" sigma="0.5" minGap="2.600362" maxSpeed="129.995989" guiShape="passenger" />
   <vehicle id="straightE_92" type="vehicleE_92" route="edgeE_edgeW" depart="80" departLane="2" />

   <vType id="vehicleN_93" length="4.629000" accel="3.836000" decel="4.862000" sigma="0.5" minGap="2.600362" maxSpeed="129.995989" guiShape="passenger" />
   <vehicle id="rightN_93" type="vehicleN_93" route="edgeN_edgeW" depart="81" departLane="1" />

   <vType id="vehicleS_94" length="4.905000" accel="3.941000" decel="4.786000" sigma="0.5" minGap="2.600362" maxSpeed="129.995989" guiShape="passenger" />
   <vehicle id="straightS_94" type="vehicleS_94" route="edgeS_edgeN" depart="81" departLane="3" />

   <vType id="vehicleS_95" length="5.236000" accel="3.381000" decel="3.377000" sigma="0.5" minGap="2.600362" maxSpeed="129.995989" guiShape="passenger" />
   <vehicle id="uturnS_95" type="vehicleS_95" route="edgeS_edgeS" depart="85" departLane="5" />

   <vType id="vehicleE_96" length="4.495000" accel="2.490000" decel="6.270000" sigma="0.5" minGap="2.600362" maxSpeed="129.995989" guiShape="passenger" />
   <vehicle id="uturnE_96" type="vehicleE_96" route="edgeE_edgeE" depart="85" departLane="5" />

   <vType id="vehicleN_97" length="3.985000" accel="2.560000" decel="6.378000" sigma="0.5" minGap="2.600362" maxSpeed="129.995989" guiShape="passenger" />
   <vehicle id="rightN_97" type="vehicleN_97" route="edgeN_edgeW" depart="86" departLane="1" />

   <vType id="vehicleS_98" length="4.387000" accel="3.334000" decel="4.401000" sigma="0.5" minGap="2.600362" maxSpeed="129.995989" guiShape="passenger" />
   <vehicle id="rightS_98" type="vehicleS_98" route="edgeS_edgeE" depart="86" departLane="1" />

   <vType id="vehicleS_99" length="5.118000" accel="3.554000" decel="6.384000" sigma="0.5" minGap="2.600362" maxSpeed="129.995989" guiShape="passenger" />
   <vehicle id="straightS_99" type="vehicleS_99" route="edgeS_edgeN" depart="87" departLane="2" />

   <vType id="vehicleE_100" length="4.423000" accel="2.695000" decel="3.119000" sigma="0.5" minGap="2.600362" maxSpeed="129.995989" guiShape="passenger" />
   <vehicle id="straightE_100" type="vehicleE_100" route="edgeE_edgeW" depart="87" departLane="2" />

   <vType id="vehicleW_101" length="4.443000" accel="2.374000" decel="4.096000" sigma="0.5" minGap="2.600362" maxSpeed="129.995989" guiShape="passenger" />
   <vehicle id="straightW_101" type="vehicleW_101" route="edgeW_edgeE" depart="88" departLane="2" />

   <vType id="vehicleS_102" length="4.872000" accel="3.608000" decel="3.451000" sigma="0.5" minGap="2.600362" maxSpeed="129.995989" guiShape="passenger" />
   <vehicle id="straightS_102" type="vehicleS_102" route="edgeS_edgeN" depart="89" departLane="2" />

   <vType id="vehicleE_103" length="4.700000" accel="3.405000" decel="6.495000" sigma="0.5" minGap="2.600362" maxSpeed="129.995989" guiShape="passenger" />
   <vehicle id="straightE_103" type="vehicleE_103" route="edgeE_edgeW" depart="90" departLane="5" />

   <vType id="vehicleW_104" length="4.517000" accel="3.277000" decel="5.409000" sigma="0.5" minGap="2.600362" maxSpeed="129.995989" guiShape="passenger" />
   <vehicle id="straightW_104" type="vehicleW_104" route="edgeW_edgeE" depart="91" departLane="5" />

   <vType id="vehicleS_105" length="5.334000" accel="2.500000" decel="4.334000" sigma="0.5" minGap="2.600362" maxSpeed="129.995989" guiShape="passenger" />
   <vehicle id="uturnS_105" type="vehicleS_105" route="edgeS_edgeS" depart="92" departLane="5" />

   <vType id="vehicleS_106" length="4.598000" accel="2.341000" decel="6.353000" sigma="0.5" minGap="2.600362" maxSpeed="129.995989" guiShape="passenger" />
   <vehicle id="rightS_106" type="vehicleS_106" route="edgeS_edgeE" depart="93" departLane="1" />

   <vType id="vehicleE_107" length="4.313000" accel="2.635000" decel="3.788000" sigma="0.5" minGap="2.600362" maxSpeed="129.995989" guiShape="passenger" />
   <vehicle id="straightE_107" type="vehicleE_107" route="edgeE_edgeW" depart="94" departLane="3" />

   <vType id="vehicleE_108" length="5.164000" accel="2.611000" decel="3.294000" sigma="0.5" minGap="2.600362" maxSpeed="129.995989" guiShape="passenger" />
   <vehicle id="straightE_108" type="vehicleE_108" route="edgeE_edgeW" depart="96" departLane="4" />
