<?xml version="1.0" encoding="UTF-8"?>

<!-- generated on 2021-10-23 04:06:18 by Eclipse SUMO netconvert Version 1.10.0
<configuration xmlns:xsi="http://www.w3.org/2001/XMLSchema-instance" xsi:noNamespaceSchemaLocation="http://sumo.dlr.de/xsd/netconvertConfiguration.xsd">

    <input>
        <node-files value="data2/cross.nod.xml"/>
        <edge-files value="data2/cross.edg.xml"/>
        <connection-files value="data2/cross.con.xml"/>
    </input>

    <output>
        <output-file value="data2/cross.net.xml"/>
    </output>

    <junctions>
        <no-turnarounds.except-turnlane value="true"/>
    </junctions>

    <report>
        <aggregate-warnings value="5"/>
    </report>

</configuration>
-->

<net version="1.9" junctionCornerDetail="5" limitTurnSpeed="5.50" xmlns:xsi="http://www.w3.org/2001/XMLSchema-instance" xsi:noNamespaceSchemaLocation="http://sumo.dlr.de/xsd/net_file.xsd">

    <location netOffset="900.00,1000.00" convBoundary="0.00,0.00,1800.00,2000.00" origBoundary="-900.00,-1000.00,900.00,1000.00" projParameter="!"/>

    <edge id=":juncE_0" function="internal">
        <lane id=":juncE_0_0" index="0" disallow="pedestrian" speed="3.65" length="4.67" shape="1800.00,998.40 1801.20,999.20 1801.60,1000.00 1801.20,1000.80 1800.00,1001.60"/>
    </edge>
    <edge id=":juncE_w0" function="walkingarea">
        <lane id=":juncE_w0_0" index="0" allow="pedestrian" speed="1.00" length="35.20" width="3.20" shape="1800.00,1016.00 1800.00,1019.20 1800.00,980.80 1800.00,984.00"/>
    </edge>
    <edge id=":juncMain_0" function="internal">
        <lane id=":juncMain_0_0" index="0" disallow="pedestrian" speed="6.86" length="5.34" shape="885.60,1020.70 885.21,1017.94 884.03,1015.98 883.80,1015.84"/>
        <lane id=":juncMain_0_1" index="1" disallow="pedestrian" speed="7.64" length="8.30" shape="888.80,1020.70 888.21,1017.94 886.42,1015.98 883.80,1014.93"/>
    </edge>
    <edge id=":juncMain_2" function="internal">
        <lane id=":juncMain_2_0" index="0" disallow="pedestrian" speed="12.10" length="41.40" shape="888.80,1020.70 888.80,979.30"/>
        <lane id=":juncMain_2_1" index="1" disallow="pedestrian" speed="12.10" length="41.40" shape="892.00,1020.70 892.00,979.30"/>
        <lane id=":juncMain_2_2" index="2" disallow="pedestrian" speed="12.10" length="41.40" shape="895.20,1020.70 895.20,979.30"/>
        <lane id=":juncMain_2_3" index="3" disallow="pedestrian" speed="12.10" length="41.40" shape="898.40,1020.70 898.40,979.30"/>
    </edge>
    <edge id=":juncMain_6" function="internal">
        <lane id=":juncMain_6_0" index="0" disallow="pedestrian" speed="12.47" length="10.26" shape="898.40,1020.70 899.79,1010.94 900.00,1010.60"/>
    </edge>
    <edge id=":juncMain_7" function="internal">
        <lane id=":juncMain_7_0" index="0" disallow="pedestrian" speed="3.65" length="2.34" shape="898.40,1020.70 899.20,1019.50 900.00,1019.10"/>
    </edge>
    <edge id=":juncMain_32" function="internal">
        <lane id=":juncMain_32_0" index="0" disallow="pedestrian" speed="6.86" length="4.82" shape="883.80,1015.84 882.06,1014.79 879.30,1014.40"/>
    </edge>
    <edge id=":juncMain_33" function="internal">
        <lane id=":juncMain_33_0" index="0" disallow="pedestrian" speed="7.64" length="4.54" shape="883.80,1014.93 883.46,1014.79 879.30,1014.40"/>
    </edge>
    <edge id=":juncMain_34" function="internal">
        <lane id=":juncMain_34_0" index="0" disallow="pedestrian" speed="12.47" length="25.71" shape="900.00,1010.60 903.97,1003.98 910.94,999.79 920.70,998.40"/>
    </edge>
    <edge id=":juncMain_35" function="internal">
        <lane id=":juncMain_35_0" index="0" disallow="pedestrian" speed="3.65" length="2.34" shape="900.00,1019.10 900.80,1019.50 901.60,1020.70"/>
    </edge>
    <edge id=":juncMain_8" function="internal">
        <lane id=":juncMain_8_0" index="0" disallow="pedestrian" speed="6.86" length="5.34" shape="920.70,1014.40 917.94,1014.79 915.98,1015.97 915.84,1016.20"/>
    </edge>
    <edge id=":juncMain_9" function="internal">
        <lane id=":juncMain_9_0" index="0" disallow="pedestrian" speed="24.14" length="41.40" shape="920.70,1011.20 879.30,1011.20"/>
        <lane id=":juncMain_9_1" index="1" disallow="pedestrian" speed="24.14" length="41.40" shape="920.70,1008.00 879.30,1008.00"/>
        <lane id=":juncMain_9_2" index="2" disallow="pedestrian" speed="24.14" length="41.40" shape="920.70,1004.80 879.30,1004.80"/>
        <lane id=":juncMain_9_3" index="3" disallow="pedestrian" speed="24.14" length="41.40" shape="920.70,1001.60 879.30,1001.60"/>
    </edge>
    <edge id=":juncMain_13" function="internal">
        <lane id=":juncMain_13_0" index="0" disallow="pedestrian" speed="12.90" length="11.69" shape="920.70,1001.60 909.54,1000.21 909.15,1000.00"/>
        <lane id=":juncMain_13_1" index="1" disallow="pedestrian" speed="12.47" length="10.26" shape="920.70,1001.60 910.94,1000.21 910.60,1000.00"/>
    </edge>
    <edge id=":juncMain_15" function="internal">
        <lane id=":juncMain_15_0" index="0" disallow="pedestrian" speed="3.65" length="2.34" shape="920.70,1001.60 919.50,1000.80 919.10,1000.00"/>
    </edge>
    <edge id=":juncMain_36" function="internal">
        <lane id=":juncMain_36_0" index="0" disallow="pedestrian" speed="6.86" length="4.82" shape="915.84,1016.20 914.79,1017.94 914.40,1020.70"/>
    </edge>
    <edge id=":juncMain_37" function="internal">
        <lane id=":juncMain_37_0" index="0" disallow="pedestrian" speed="12.90" length="26.89" shape="909.15,1000.00 901.58,996.03 896.79,989.06 895.20,979.30"/>
    </edge>
    <edge id=":juncMain_38" function="internal">
        <lane id=":juncMain_38_0" index="0" disallow="pedestrian" speed="12.47" length="25.71" shape="910.60,1000.00 903.98,996.03 899.79,989.06 898.40,979.30"/>
    </edge>
    <edge id=":juncMain_39" function="internal">
        <lane id=":juncMain_39_0" index="0" disallow="pedestrian" speed="3.65" length="2.34" shape="919.10,1000.00 919.50,999.20 920.70,998.40"/>
    </edge>
    <edge id=":juncMain_16" function="internal">
        <lane id=":juncMain_16_0" index="0" disallow="pedestrian" speed="6.86" length="5.34" shape="914.40,979.30 914.79,982.06 915.97,984.02 916.20,984.16"/>
        <lane id=":juncMain_16_1" index="1" disallow="pedestrian" speed="7.64" length="8.30" shape="911.20,979.30 911.79,982.06 913.58,984.02 916.20,985.07"/>
    </edge>
    <edge id=":juncMain_18" function="internal">
        <lane id=":juncMain_18_0" index="0" disallow="pedestrian" speed="12.10" length="41.40" shape="911.20,979.30 911.20,1020.70"/>
        <lane id=":juncMain_18_1" index="1" disallow="pedestrian" speed="12.10" length="41.40" shape="908.00,979.30 908.00,1020.70"/>
        <lane id=":juncMain_18_2" index="2" disallow="pedestrian" speed="12.10" length="41.40" shape="904.80,979.30 904.80,1020.70"/>
        <lane id=":juncMain_18_3" index="3" disallow="pedestrian" speed="12.10" length="41.40" shape="901.60,979.30 901.60,1020.70"/>
    </edge>
    <edge id=":juncMain_22" function="internal">
        <lane id=":juncMain_22_0" index="0" disallow="pedestrian" speed="12.47" length="10.26" shape="901.60,979.30 900.21,989.06 900.00,989.40"/>
    </edge>
    <edge id=":juncMain_23" function="internal">
        <lane id=":juncMain_23_0" index="0" disallow="pedestrian" speed="3.65" length="2.34" shape="901.60,979.30 900.80,980.50 900.00,980.90"/>
    </edge>
    <edge id=":juncMain_40" function="internal">
        <lane id=":juncMain_40_0" index="0" disallow="pedestrian" speed="6.86" length="4.82" shape="916.20,984.16 917.94,985.21 920.70,985.60"/>
    </edge>
    <edge id=":juncMain_41" function="internal">
        <lane id=":juncMain_41_0" index="0" disallow="pedestrian" speed="7.64" length="4.54" shape="916.20,985.07 916.54,985.21 920.70,985.60"/>
    </edge>
    <edge id=":juncMain_42" function="internal">
        <lane id=":juncMain_42_0" index="0" disallow="pedestrian" speed="12.47" length="25.71" shape="900.00,989.40 896.03,996.02 889.06,1000.21 879.30,1001.60"/>
    </edge>
    <edge id=":juncMain_43" function="internal">
        <lane id=":juncMain_43_0" index="0" disallow="pedestrian" speed="3.65" length="2.34" shape="900.00,980.90 899.20,980.50 898.40,979.30"/>
    </edge>
    <edge id=":juncMain_24" function="internal">
        <lane id=":juncMain_24_0" index="0" disallow="pedestrian" speed="6.86" length="5.34" shape="879.30,985.60 882.06,985.21 884.02,984.03 884.16,983.80"/>
    </edge>
    <edge id=":juncMain_25" function="internal">
        <lane id=":juncMain_25_0" index="0" disallow="pedestrian" speed="24.14" length="41.40" shape="879.30,988.80 920.70,988.80"/>
        <lane id=":juncMain_25_1" index="1" disallow="pedestrian" speed="24.14" length="41.40" shape="879.30,992.00 920.70,992.00"/>
        <lane id=":juncMain_25_2" index="2" disallow="pedestrian" speed="24.14" length="41.40" shape="879.30,995.20 920.70,995.20"/>
        <lane id=":juncMain_25_3" index="3" disallow="pedestrian" speed="24.14" length="41.40" shape="879.30,998.40 920.70,998.40"/>
    </edge>
    <edge id=":juncMain_29" function="internal">
        <lane id=":juncMain_29_0" index="0" disallow="pedestrian" speed="12.90" length="11.69" shape="879.30,998.40 890.46,999.79 890.85,1000.00"/>
        <lane id=":juncMain_29_1" index="1" disallow="pedestrian" speed="12.47" length="10.26" shape="879.30,998.40 889.06,999.79 889.40,1000.00"/>
    </edge>
    <edge id=":juncMain_31" function="internal">
        <lane id=":juncMain_31_0" index="0" disallow="pedestrian" speed="3.65" length="2.34" shape="879.30,998.40 880.50,999.20 880.90,1000.00"/>
    </edge>
    <edge id=":juncMain_44" function="internal">
        <lane id=":juncMain_44_0" index="0" disallow="pedestrian" speed="6.86" length="4.82" shape="884.16,983.80 885.21,982.06 885.60,979.30"/>
    </edge>
    <edge id=":juncMain_45" function="internal">
        <lane id=":juncMain_45_0" index="0" disallow="pedestrian" speed="12.90" length="26.89" shape="890.85,1000.00 898.42,1003.97 903.21,1010.94 904.80,1020.70"/>
    </edge>
    <edge id=":juncMain_46" function="internal">
        <lane id=":juncMain_46_0" index="0" disallow="pedestrian" speed="12.47" length="25.71" shape="889.40,1000.00 896.02,1003.97 900.21,1010.94 901.60,1020.70"/>
    </edge>
    <edge id=":juncMain_47" function="internal">
        <lane id=":juncMain_47_0" index="0" disallow="pedestrian" speed="3.65" length="2.34" shape="880.90,1000.00 880.50,1000.80 879.30,1001.60"/>
    </edge>
    <edge id=":juncMain_c0" function="crossing" crossingEdges="edgeN_I edgeN_O">
        <lane id=":juncMain_c0_0" index="0" allow="pedestrian" speed="1.00" length="32.00" width="4.50" shape="916.00,1018.45 884.00,1018.45"/>
    </edge>
    <edge id=":juncMain_c1" function="crossing" crossingEdges="edgeE_I edgeE_O">
        <lane id=":juncMain_c1_0" index="0" allow="pedestrian" speed="1.00" length="32.00" width="4.50" shape="918.45,984.00 918.45,1016.00"/>
    </edge>
    <edge id=":juncMain_c2" function="crossing" crossingEdges="edgeS_I edgeS_O">
        <lane id=":juncMain_c2_0" index="0" allow="pedestrian" speed="1.00" length="32.00" width="4.50" shape="884.00,981.55 916.00,981.55"/>
    </edge>
    <edge id=":juncMain_c3" function="crossing" crossingEdges="edgeW_I edgeW_O">
        <lane id=":juncMain_c3_0" index="0" allow="pedestrian" speed="1.00" length="32.00" width="4.50" shape="881.55,1016.00 881.55,984.00"/>
    </edge>
    <edge id=":juncMain_w0" function="walkingarea">
        <lane id=":juncMain_w0_0" index="0" allow="pedestrian" speed="1.00" length="3.82" width="4.50" shape="879.30,1016.00 879.30,1019.20 880.80,1020.70 884.00,1020.70 883.87,1019.26 883.48,1018.09 882.83,1017.17 881.91,1016.52 880.74,1016.13"/>
    </edge>
    <edge id=":juncMain_w1" function="walkingarea">
        <lane id=":juncMain_w1_0" index="0" allow="pedestrian" speed="1.00" length="3.82" width="4.50" shape="916.00,1020.70 919.20,1020.70 920.70,1019.20 920.70,1016.00 919.26,1016.13 918.09,1016.52 917.17,1017.17 916.52,1018.09 916.13,1019.26"/>
    </edge>
    <edge id=":juncMain_w2" function="walkingarea">
        <lane id=":juncMain_w2_0" index="0" allow="pedestrian" speed="1.00" length="3.82" width="4.50" shape="920.70,984.00 920.70,980.80 919.20,979.30 916.00,979.30 916.13,980.74 916.52,981.91 917.17,982.83 918.09,983.48 919.26,983.87"/>
    </edge>
    <edge id=":juncMain_w3" function="walkingarea">
        <lane id=":juncMain_w3_0" index="0" allow="pedestrian" speed="1.00" length="3.82" width="4.50" shape="884.00,979.30 880.80,979.30 879.30,980.80 879.30,984.00 880.74,983.87 881.91,983.48 882.83,982.83 883.48,981.91 883.87,980.74"/>
    </edge>
    <edge id=":juncN_0" function="internal">
        <lane id=":juncN_0_0" index="0" disallow="pedestrian" speed="3.65" length="4.67" shape="901.60,2000.00 900.80,2001.20 900.00,2001.60 899.20,2001.20 898.40,2000.00"/>
    </edge>
    <edge id=":juncN_w0" function="walkingarea">
        <lane id=":juncN_w0_0" index="0" allow="pedestrian" speed="1.00" length="35.20" width="3.20" shape="884.00,2000.00 880.80,2000.00 919.20,2000.00 916.00,2000.00"/>
    </edge>
    <edge id=":juncS_0" function="internal">
        <lane id=":juncS_0_0" index="0" disallow="pedestrian" speed="3.65" length="4.67" shape="898.40,0.00 899.20,-1.20 900.00,-1.60 900.80,-1.20 901.60,0.00"/>
    </edge>
    <edge id=":juncS_w0" function="walkingarea">
        <lane id=":juncS_w0_0" index="0" allow="pedestrian" speed="1.00" length="35.20" width="3.20" shape="916.00,0.00 919.20,0.00 880.80,0.00 884.00,0.00"/>
    </edge>
    <edge id=":juncW_0" function="internal">
        <lane id=":juncW_0_0" index="0" disallow="pedestrian" speed="3.65" length="4.67" shape="0.00,1001.60 -1.20,1000.80 -1.60,1000.00 -1.20,999.20 0.00,998.40"/>
    </edge>
    <edge id=":juncW_w0" function="walkingarea">
        <lane id=":juncW_w0_0" index="0" allow="pedestrian" speed="1.00" length="35.20" width="3.20" shape="0.00,984.00 0.00,980.80 0.00,1019.20 0.00,1016.00"/>
    </edge>

    <edge id="edgeE_I" from="juncMain" to="juncE" priority="46">
        <lane id="edgeE_I_0" index="0" allow="pedestrian" speed="26.74" length="879.30" shape="920.70,982.40 1800.00,982.40"/>
        <lane id="edgeE_I_1" index="1" disallow="pedestrian" speed="26.74" length="879.30" shape="920.70,985.60 1800.00,985.60"/>
        <lane id="edgeE_I_2" index="2" disallow="pedestrian" speed="26.74" length="879.30" shape="920.70,988.80 1800.00,988.80"/>
        <lane id="edgeE_I_3" index="3" disallow="pedestrian" speed="26.74" length="879.30" shape="920.70,992.00 1800.00,992.00"/>
        <lane id="edgeE_I_4" index="4" disallow="pedestrian" speed="26.74" length="879.30" shape="920.70,995.20 1800.00,995.20"/>
        <lane id="edgeE_I_5" index="5" disallow="pedestrian" speed="26.74" length="879.30" shape="920.70,998.40 1800.00,998.40"/>
    </edge>
    <edge id="edgeE_O" from="juncE" to="juncMain" priority="78">
        <lane id="edgeE_O_0" index="0" allow="pedestrian" speed="21.54" length="879.30" shape="1800.00,1017.60 920.70,1017.60"/>
        <lane id="edgeE_O_1" index="1" disallow="pedestrian" speed="21.54" length="879.30" shape="1800.00,1014.40 920.70,1014.40"/>
        <lane id="edgeE_O_2" index="2" disallow="pedestrian" speed="21.54" length="879.30" shape="1800.00,1011.20 920.70,1011.20"/>
        <lane id="edgeE_O_3" index="3" disallow="pedestrian" speed="21.54" length="879.30" shape="1800.00,1008.00 920.70,1008.00"/>
        <lane id="edgeE_O_4" index="4" disallow="pedestrian" speed="21.54" length="879.30" shape="1800.00,1004.80 920.70,1004.80"/>
        <lane id="edgeE_O_5" index="5" disallow="pedestrian" speed="21.54" length="879.30" shape="1800.00,1001.60 920.70,1001.60"/>
    </edge>
    <edge id="edgeN_I" from="juncMain" to="juncN" priority="46">
        <lane id="edgeN_I_0" index="0" allow="pedestrian" speed="12.64" length="979.30" shape="917.60,1020.70 917.60,2000.00"/>
        <lane id="edgeN_I_1" index="1" disallow="pedestrian" speed="12.64" length="979.30" shape="914.40,1020.70 914.40,2000.00"/>
        <lane id="edgeN_I_2" index="2" disallow="pedestrian" speed="12.64" length="979.30" shape="911.20,1020.70 911.20,2000.00"/>
        <lane id="edgeN_I_3" index="3" disallow="pedestrian" speed="12.64" length="979.30" shape="908.00,1020.70 908.00,2000.00"/>
        <lane id="edgeN_I_4" index="4" disallow="pedestrian" speed="12.64" length="979.30" shape="904.80,1020.70 904.80,2000.00"/>
        <lane id="edgeN_I_5" index="5" disallow="pedestrian" speed="12.64" length="979.30" shape="901.60,1020.70 901.60,2000.00"/>
    </edge>
    <edge id="edgeN_O" from="juncN" to="juncMain" priority="78">
        <lane id="edgeN_O_0" index="0" allow="pedestrian" speed="11.57" length="979.30" shape="882.40,2000.00 882.40,1020.70"/>
        <lane id="edgeN_O_1" index="1" disallow="pedestrian" speed="11.57" length="979.30" shape="885.60,2000.00 885.60,1020.70"/>
        <lane id="edgeN_O_2" index="2" disallow="pedestrian" speed="11.57" length="979.30" shape="888.80,2000.00 888.80,1020.70"/>
        <lane id="edgeN_O_3" index="3" disallow="pedestrian" speed="11.57" length="979.30" shape="892.00,2000.00 892.00,1020.70"/>
        <lane id="edgeN_O_4" index="4" disallow="pedestrian" speed="11.57" length="979.30" shape="895.20,2000.00 895.20,1020.70"/>
        <lane id="edgeN_O_5" index="5" disallow="pedestrian" speed="11.57" length="979.30" shape="898.40,2000.00 898.40,1020.70"/>
    </edge>
    <edge id="edgeS_I" from="juncMain" to="juncS" priority="46">
        <lane id="edgeS_I_0" index="0" allow="pedestrian" speed="12.64" length="979.30" shape="882.40,979.30 882.40,0.00"/>
        <lane id="edgeS_I_1" index="1" disallow="pedestrian" speed="12.64" length="979.30" shape="885.60,979.30 885.60,0.00"/>
        <lane id="edgeS_I_2" index="2" disallow="pedestrian" speed="12.64" length="979.30" shape="888.80,979.30 888.80,0.00"/>
        <lane id="edgeS_I_3" index="3" disallow="pedestrian" speed="12.64" length="979.30" shape="892.00,979.30 892.00,0.00"/>
        <lane id="edgeS_I_4" index="4" disallow="pedestrian" speed="12.64" length="979.30" shape="895.20,979.30 895.20,0.00"/>
        <lane id="edgeS_I_5" index="5" disallow="pedestrian" speed="12.64" length="979.30" shape="898.40,979.30 898.40,0.00"/>
    </edge>
    <edge id="edgeS_O" from="juncS" to="juncMain" priority="78">
        <lane id="edgeS_O_0" index="0" allow="pedestrian" speed="11.57" length="979.30" shape="917.60,0.00 917.60,979.30"/>
        <lane id="edgeS_O_1" index="1" disallow="pedestrian" speed="11.57" length="979.30" shape="914.40,0.00 914.40,979.30"/>
        <lane id="edgeS_O_2" index="2" disallow="pedestrian" speed="11.57" length="979.30" shape="911.20,0.00 911.20,979.30"/>
        <lane id="edgeS_O_3" index="3" disallow="pedestrian" speed="11.57" length="979.30" shape="908.00,0.00 908.00,979.30"/>
        <lane id="edgeS_O_4" index="4" disallow="pedestrian" speed="11.57" length="979.30" shape="904.80,0.00 904.80,979.30"/>
        <lane id="edgeS_O_5" index="5" disallow="pedestrian" speed="11.57" length="979.30" shape="901.60,0.00 901.60,979.30"/>
    </edge>
    <edge id="edgeW_I" from="juncMain" to="juncW" priority="46">
        <lane id="edgeW_I_0" index="0" allow="pedestrian" speed="26.74" length="879.30" shape="879.30,1017.60 0.00,1017.60"/>
        <lane id="edgeW_I_1" index="1" disallow="pedestrian" speed="26.74" length="879.30" shape="879.30,1014.40 0.00,1014.40"/>
        <lane id="edgeW_I_2" index="2" disallow="pedestrian" speed="26.74" length="879.30" shape="879.30,1011.20 0.00,1011.20"/>
        <lane id="edgeW_I_3" index="3" disallow="pedestrian" speed="26.74" length="879.30" shape="879.30,1008.00 0.00,1008.00"/>
        <lane id="edgeW_I_4" index="4" disallow="pedestrian" speed="26.74" length="879.30" shape="879.30,1004.80 0.00,1004.80"/>
        <lane id="edgeW_I_5" index="5" disallow="pedestrian" speed="26.74" length="879.30" shape="879.30,1001.60 0.00,1001.60"/>
    </edge>
    <edge id="edgeW_O" from="juncW" to="juncMain" priority="78">
        <lane id="edgeW_O_0" index="0" allow="pedestrian" speed="21.54" length="879.30" shape="0.00,982.40 879.30,982.40"/>
        <lane id="edgeW_O_1" index="1" disallow="pedestrian" speed="21.54" length="879.30" shape="0.00,985.60 879.30,985.60"/>
        <lane id="edgeW_O_2" index="2" disallow="pedestrian" speed="21.54" length="879.30" shape="0.00,988.80 879.30,988.80"/>
        <lane id="edgeW_O_3" index="3" disallow="pedestrian" speed="21.54" length="879.30" shape="0.00,992.00 879.30,992.00"/>
        <lane id="edgeW_O_4" index="4" disallow="pedestrian" speed="21.54" length="879.30" shape="0.00,995.20 879.30,995.20"/>
        <lane id="edgeW_O_5" index="5" disallow="pedestrian" speed="21.54" length="879.30" shape="0.00,998.40 879.30,998.40"/>
    </edge>

    <tlLogic id="juncMain" type="static" programID="0" offset="0">
        <phase duration="35" state="rrrrrrrrgGGGGgggrrrrrrrrgGGGGgggGrGr"/>
        <phase duration="5"  state="rrrrrrrrgGGGGgggrrrrrrrrgGGGGgggrrrr"/>
        <phase duration="5"  state="rrrrrrrryyyyyyyyrrrrrrrryyyyyyyyrrrr"/>
        <phase duration="35" state="ggGGGGggrrrrrrrrggGGGGggrrrrrrrrrGrG"/>
        <phase duration="5"  state="ggGGGGggrrrrrrrrggGGGGggrrrrrrrrrrrr"/>
        <phase duration="5"  state="yyyyyyyyrrrrrrrryyyyyyyyrrrrrrrrrrrr"/>
    </tlLogic>

    <junction id="juncE" type="priority" x="1800.00" y="1000.00" incLanes="edgeE_I_0 edgeE_I_1 edgeE_I_2 edgeE_I_3 edgeE_I_4 edgeE_I_5" intLanes=":juncE_0_0" shape="1800.00,1000.00 1800.00,980.80 1800.00,1000.00">
        <request index="0" response="0" foes="0" cont="0"/>
    </junction>
    <junction id="juncMain" type="traffic_light" x="900.00" y="1000.00" incLanes="edgeN_O_0 edgeN_O_1 edgeN_O_2 edgeN_O_3 edgeN_O_4 edgeN_O_5 edgeE_O_0 edgeE_O_1 edgeE_O_2 edgeE_O_3 edgeE_O_4 edgeE_O_5 edgeS_O_0 edgeS_O_1 edgeS_O_2 edgeS_O_3 edgeS_O_4 edgeS_O_5 edgeW_O_0 edgeW_O_1 edgeW_O_2 edgeW_O_3 edgeW_O_4 edgeW_O_5 :juncMain_w1_0 :juncMain_w2_0 :juncMain_w3_0 :juncMain_w0_0" intLanes=":juncMain_32_0 :juncMain_33_0 :juncMain_2_0 :juncMain_2_1 :juncMain_2_2 :juncMain_2_3 :juncMain_34_0 :juncMain_35_0 :juncMain_36_0 :juncMain_9_0 :juncMain_9_1 :juncMain_9_2 :juncMain_9_3 :juncMain_37_0 :juncMain_38_0 :juncMain_39_0 :juncMain_40_0 :juncMain_41_0 :juncMain_18_0 :juncMain_18_1 :juncMain_18_2 :juncMain_18_3 :juncMain_42_0 :juncMain_43_0 :juncMain_44_0 :juncMain_25_0 :juncMain_25_1 :juncMain_25_2 :juncMain_25_3 :juncMain_45_0 :juncMain_46_0 :juncMain_47_0 :juncMain_c0_0 :juncMain_c1_0 :juncMain_c2_0 :juncMain_c3_0" shape="880.80,1020.70 919.20,1020.70 919.37,1019.87 919.58,1019.58 919.87,1019.37 920.24,1019.24 920.70,1019.20 920.70,980.80 919.87,980.63 919.58,980.42 919.37,980.13 919.24,979.76 919.20,979.30 880.80,979.30 880.63,980.13 880.42,980.42 880.13,980.63 879.76,980.76 879.30,980.80 879.30,1019.20 880.13,1019.37 880.42,1019.58 880.63,1019.87 880.76,1020.24">
        <request index="0"  response="100100000000000000000000000000000000" foes="100100000000000000000000000000000010" cont="1"/>
        <request index="1"  response="100100000000000000000000000000000001" foes="100100000000000000000000000000000001" cont="1"/>
        <request index="2"  response="010101111110000000000111111000000000" foes="010101111110110000000111111000000000" cont="0"/>
        <request index="3"  response="010101111110000000000111111000000000" foes="010101111110110000000111111000000000" cont="0"/>
        <request index="4"  response="010101111110000000000111111000000000" foes="010101111110110000000111111000000000" cont="0"/>
        <request index="5"  response="010101111110000000000111111000000000" foes="010101111110110000000111111000000000" cont="0"/>
        <request index="6"  response="001101111110001111000111111000000000" foes="001101111110001111001111111000000000" cont="1"/>
        <request index="7"  response="000101100000001111000000000000000000" foes="000101100000001111000000000000000000" cont="1"/>
        <request index="8"  response="001100000000000000000000000000000000" foes="001100000000000000000000000000000000" cont="1"/>
        <request index="9"  response="101000000000010000000000000001000000" foes="101011100000011111000000000001111100" cont="0"/>
        <request index="10" response="101000000000010000000000000001000000" foes="101011100000011111000000000001111100" cont="0"/>
        <request index="11" response="101000000000010000000000000001000000" foes="101011100000011111000000000001111100" cont="0"/>
        <request index="12" response="101000000000010000000000000001000000" foes="101011100000011111000000000001111100" cont="0"/>
        <request index="13" response="011000011110010000000000000001000000" foes="011000011110111111000000000001111100" cont="1"/>
        <request index="14" response="011000011110010000000000000001000000" foes="011000011110111111000000000001111100" cont="1"/>
        <request index="15" response="001000011110000000000000000001000000" foes="001000011110000000000000000001000000" cont="1"/>
        <request index="16" response="011000000000000000000000000000000000" foes="011000000000000000100000000000000000" cont="1"/>
        <request index="17" response="011000000000000000010000000000000000" foes="011000000000000000010000000000000000" cont="1"/>
        <request index="18" response="010101111110000000000111111000000000" foes="010101111110000000000111111011000000" cont="0"/>
        <request index="19" response="010101111110000000000111111000000000" foes="010101111110000000000111111011000000" cont="0"/>
        <request index="20" response="010101111110000000000111111000000000" foes="010101111110000000000111111011000000" cont="0"/>
        <request index="21" response="010101111110000000000111111000000000" foes="010101111110000000000111111011000000" cont="0"/>
        <request index="22" response="110001111110000000000111111000111100" foes="110011111110000000000111111000111100" cont="1"/>
        <request index="23" response="010000000000000000000110000000111100" foes="010000000000000000000110000000111100" cont="1"/>
        <request index="24" response="110000000000000000000000000000000000" foes="110000000000000000000000000000000000" cont="1"/>
        <request index="25" response="101000000000010000000000000001000000" foes="101000000000011111001110000001111100" cont="0"/>
        <request index="26" response="101000000000010000000000000001000000" foes="101000000000011111001110000001111100" cont="0"/>
        <request index="27" response="101000000000010000000000000001000000" foes="101000000000011111001110000001111100" cont="0"/>
        <request index="28" response="101000000000010000000000000001000000" foes="101000000000011111001110000001111100" cont="0"/>
        <request index="29" response="100100000000010000000001111001000000" foes="100100000000011111000001111011111100" cont="1"/>
        <request index="30" response="100100000000010000000001111001000000" foes="100100000000011111000001111011111100" cont="1"/>
        <request index="31" response="100000000000010000000001111000000000" foes="100000000000010000000001111000000000" cont="1"/>
        <request index="32" response="000000000000000000000000000000000000" foes="000001100000001111000000000111111111" cont="0"/>
        <request index="33" response="000000000000000000000000000000000000" foes="000000011110000000111111111101000000" cont="0"/>
        <request index="34" response="000000000000000000000000000000000000" foes="000000000001111111110110000000111100" cont="0"/>
        <request index="35" response="000000000000000000000000000000000000" foes="000011111111010000000001111000000011" cont="0"/>
    </junction>
    <junction id="juncN" type="priority" x="900.00" y="2000.00" incLanes="edgeN_I_0 edgeN_I_1 edgeN_I_2 edgeN_I_3 edgeN_I_4 edgeN_I_5" intLanes=":juncN_0_0" shape="900.00,2000.00 919.20,2000.00 900.00,2000.00">
        <request index="0" response="0" foes="0" cont="0"/>
    </junction>
    <junction id="juncS" type="priority" x="900.00" y="0.00" incLanes="edgeS_I_0 edgeS_I_1 edgeS_I_2 edgeS_I_3 edgeS_I_4 edgeS_I_5" intLanes=":juncS_0_0" shape="900.00,0.00 880.80,0.00 900.00,0.00">
        <request index="0" response="0" foes="0" cont="0"/>
    </junction>
    <junction id="juncW" type="priority" x="0.00" y="1000.00" incLanes="edgeW_I_0 edgeW_I_1 edgeW_I_2 edgeW_I_3 edgeW_I_4 edgeW_I_5" intLanes=":juncW_0_0" shape="0.00,1000.00 0.00,1019.20 0.00,1000.00">
        <request index="0" response="0" foes="0" cont="0"/>
    </junction>

    <junction id=":juncMain_32_0" type="internal" x="883.80" y="1015.84" incLanes=":juncMain_0_0" intLanes=":juncMain_0_1 :juncMain_9_0 :juncMain_9_1 :juncMain_9_2 :juncMain_9_3 :juncMain_22_0 :juncMain_31_0 :juncMain_c0_0 :juncMain_c3_0"/>
    <junction id=":juncMain_33_0" type="internal" x="883.80" y="1014.93" incLanes=":juncMain_0_1" intLanes=":juncMain_0_0 :juncMain_9_0 :juncMain_9_1 :juncMain_9_2 :juncMain_9_3 :juncMain_22_0 :juncMain_31_0 :juncMain_c0_0 :juncMain_c3_0"/>
    <junction id=":juncMain_34_0" type="internal" x="900.00" y="1010.60" incLanes=":juncMain_6_0 edgeS_O_1 edgeS_O_2 edgeS_O_3 edgeS_O_4 edgeS_O_5" intLanes=":juncMain_9_0 :juncMain_9_1 :juncMain_9_2 :juncMain_9_3 :juncMain_13_0 :juncMain_13_1 :juncMain_15_0 :juncMain_16_0 :juncMain_16_1 :juncMain_18_0 :juncMain_18_1 :juncMain_18_2 :juncMain_18_3 :juncMain_25_0 :juncMain_25_1 :juncMain_25_2 :juncMain_25_3 :juncMain_29_0 :juncMain_29_1 :juncMain_c0_0 :juncMain_c1_0"/>
    <junction id=":juncMain_35_0" type="internal" x="900.00" y="1019.10" incLanes=":juncMain_7_0 edgeE_O_1 edgeS_O_2 edgeS_O_3 edgeS_O_4 edgeS_O_5 edgeW_O_5" intLanes=":juncMain_8_0 :juncMain_18_0 :juncMain_18_1 :juncMain_18_2 :juncMain_18_3 :juncMain_29_0 :juncMain_29_1 :juncMain_c0_0 :juncMain_c0_0"/>
    <junction id=":juncMain_36_0" type="internal" x="915.84" y="1016.20" incLanes=":juncMain_8_0" intLanes=":juncMain_7_0 :juncMain_18_0 :juncMain_18_1 :juncMain_18_2 :juncMain_18_3 :juncMain_29_0 :juncMain_29_1 :juncMain_c0_0 :juncMain_c1_0"/>