<?xml version="1.0" encoding="UTF-8"?>

<!-- generated on 2021-10-23 05:39:52 by Eclipse SUMO netconvert Version 1.10.0
<configuration xmlns:xsi="http://www.w3.org/2001/XMLSchema-instance" xsi:noNamespaceSchemaLocation="http://sumo.dlr.de/xsd/netconvertConfiguration.xsd">

    <input>
        <node-files value="data0/cross.nod.xml"/>
        <edge-files value="data0/cross.edg.xml"/>
        <connection-files value="data0/cross.con.xml"/>
    </input>

    <output>
        <output-file value="data0/cross.net.xml"/>
    </output>

    <junctions>
        <no-turnarounds.except-turnlane value="true"/>
    </junctions>

    <report>
        <aggregate-warnings value="5"/>
    </report>

</configuration>
-->

<net version="1.9" junctionCornerDetail="5" limitTurnSpeed="5.50" xmlns:xsi="http://www.w3.org/2001/XMLSchema-instance" xsi:noNamespaceSchemaLocation="http://sumo.dlr.de/xsd/net_file.xsd">

    <location netOffset="900.00,700.00" convBoundary="0.00,0.00,1900.00,1500.00" origBoundary="-900.00,-700.00,1000.00,800.00" projParameter="!"/>

    <edge id=":juncE_0" function="internal">
        <lane id=":juncE_0_0" index="0" disallow="pedestrian" speed="3.65" length="4.67" shape="1900.00,698.40 1901.20,699.20 1901.60,700.00 1901.20,700.80 1900.00,701.60"/>
    </edge>
    <edge id=":juncE_w0" function="walkingarea">
        <lane id=":juncE_w0_0" index="0" allow="pedestrian" speed="1.00" length="41.60" width="3.20" shape="1900.00,719.20 1900.00,722.40 1900.00,677.60 1900.00,680.80"/>
    </edge>
    <edge id=":juncMain_0" function="internal">
        <lane id=":juncMain_0_0" index="0" disallow="pedestrian" speed="18.29" length="47.80" shape="888.80,723.90 888.80,676.10"/>
        <lane id=":juncMain_0_1" index="1" disallow="pedestrian" speed="18.29" length="47.80" shape="892.00,723.90 892.00,676.10"/>
        <lane id=":juncMain_0_2" index="2" disallow="pedestrian" speed="18.29" length="47.80" shape="895.20,723.90 895.20,676.10"/>
    </edge>
    <edge id=":juncMain_3" function="internal">
        <lane id=":juncMain_3_0" index="0" disallow="pedestrian" speed="12.95" length="22.27" shape="898.40,723.90 899.59,711.34 903.17,702.38"/>
        <lane id=":juncMain_3_1" index="1" disallow="pedestrian" speed="12.50" length="19.96" shape="898.40,723.90 899.59,712.74 903.17,704.77"/>
    </edge>
    <edge id=":juncMain_5" function="internal">
        <lane id=":juncMain_5_0" index="0" disallow="pedestrian" speed="3.65" length="2.34" shape="898.40,723.90 899.20,722.70 900.00,722.30"/>
    </edge>
    <edge id=":juncMain_32" function="internal">
        <lane id=":juncMain_32_0" index="0" disallow="pedestrian" speed="12.95" length="16.58" shape="903.17,702.38 909.14,696.99 917.50,695.20"/>
    </edge>
    <edge id=":juncMain_33" function="internal">
        <lane id=":juncMain_33_0" index="0" disallow="pedestrian" speed="12.50" length="16.15" shape="903.17,704.77 909.14,699.99 917.50,698.40"/>
    </edge>
    <edge id=":juncMain_34" function="internal">
        <lane id=":juncMain_34_0" index="0" disallow="pedestrian" speed="3.65" length="2.34" shape="900.00,722.30 900.80,722.70 901.60,723.90"/>
    </edge>
    <edge id=":juncMain_6" function="internal">
        <lane id=":juncMain_6_0" index="0" disallow="pedestrian" speed="6.86" length="5.34" shape="917.50,717.60 914.74,717.99 912.78,719.18 912.64,719.40"/>
        <lane id=":juncMain_6_1" index="1" disallow="pedestrian" speed="7.64" length="7.67" shape="917.50,717.60 913.34,717.99 910.38,719.18 910.17,719.40"/>
    </edge>
    <edge id=":juncMain_8" function="internal">
        <lane id=":juncMain_8_0" index="0" disallow="pedestrian" speed="19.66" length="35.00" shape="917.50,717.60 882.50,717.60"/>
        <lane id=":juncMain_8_1" index="1" disallow="pedestrian" speed="19.66" length="35.00" shape="917.50,714.40 882.50,714.40"/>
        <lane id=":juncMain_8_2" index="2" disallow="pedestrian" speed="19.66" length="35.00" shape="917.50,711.20 882.50,711.20"/>
        <lane id=":juncMain_8_3" index="3" disallow="pedestrian" speed="19.66" length="35.00" shape="917.50,708.00 882.50,708.00"/>
        <lane id=":juncMain_8_4" index="4" disallow="pedestrian" speed="19.66" length="35.00" shape="917.50,704.80 882.50,704.80"/>
    </edge>
    <edge id=":juncMain_13" function="internal">
        <lane id=":juncMain_13_0" index="0" disallow="pedestrian" speed="12.95" length="17.47" shape="917.50,704.80 909.14,703.01 903.18,697.62 902.85,696.80"/>
        <lane id=":juncMain_13_1" index="1" disallow="pedestrian" speed="12.50" length="13.64" shape="917.50,701.60 909.14,700.01 905.14,696.80"/>
    </edge>
    <edge id=":juncMain_15" function="internal">
        <lane id=":juncMain_15_0" index="0" disallow="pedestrian" speed="3.65" length="2.34" shape="917.50,701.60 916.30,700.80 915.90,700.00"/>
    </edge>
    <edge id=":juncMain_35" function="internal">
        <lane id=":juncMain_35_0" index="0" disallow="pedestrian" speed="6.86" length="4.82" shape="912.64,719.40 911.59,721.14 911.20,723.90"/>
    </edge>
    <edge id=":juncMain_36" function="internal">
        <lane id=":juncMain_36_0" index="0" disallow="pedestrian" speed="7.64" length="5.17" shape="910.17,719.40 908.59,721.14 908.00,723.90"/>
    </edge>
    <edge id=":juncMain_37" function="internal">
        <lane id=":juncMain_37_0" index="0" disallow="pedestrian" speed="12.95" length="21.38" shape="902.85,696.80 899.59,688.66 898.40,676.10"/>
    </edge>
    <edge id=":juncMain_38" function="internal">
        <lane id=":juncMain_38_0" index="0" disallow="pedestrian" speed="12.50" length="22.48" shape="905.14,696.80 903.18,695.23 899.59,687.26 898.40,676.10"/>
    </edge>
    <edge id=":juncMain_39" function="internal">
        <lane id=":juncMain_39_0" index="0" disallow="pedestrian" speed="3.65" length="2.34" shape="915.90,700.00 916.30,699.20 917.50,698.40"/>
    </edge>
    <edge id=":juncMain_16" function="internal">
        <lane id=":juncMain_16_0" index="0" disallow="pedestrian" speed="18.29" length="47.80" shape="911.20,676.10 911.20,723.90"/>
        <lane id=":juncMain_16_1" index="1" disallow="pedestrian" speed="18.29" length="47.80" shape="908.00,676.10 908.00,723.90"/>
        <lane id=":juncMain_16_2" index="2" disallow="pedestrian" speed="18.29" length="47.80" shape="904.80,676.10 904.80,723.90"/>
    </edge>
    <edge id=":juncMain_19" function="internal">
        <lane id=":juncMain_19_0" index="0" disallow="pedestrian" speed="12.95" length="22.27" shape="901.60,676.10 900.41,688.66 896.83,697.62"/>
        <lane id=":juncMain_19_1" index="1" disallow="pedestrian" speed="12.50" length="19.96" shape="901.60,676.10 900.41,687.26 896.83,695.23"/>
    </edge>
    <edge id=":juncMain_21" function="internal">
        <lane id=":juncMain_21_0" index="0" disallow="pedestrian" speed="3.65" length="2.34" shape="901.60,676.10 900.80,677.30 900.00,677.70"/>
    </edge>
    <edge id=":juncMain_40" function="internal">
        <lane id=":juncMain_40_0" index="0" disallow="pedestrian" speed="12.95" length="16.58" shape="896.83,697.62 890.86,703.01 882.50,704.80"/>
    </edge>
    <edge id=":juncMain_41" function="internal">
        <lane id=":juncMain_41_0" index="0" disallow="pedestrian" speed="12.50" length="16.15" shape="896.83,695.23 890.86,700.01 882.50,701.60"/>
    </edge>
    <edge id=":juncMain_42" function="internal">
        <lane id=":juncMain_42_0" index="0" disallow="pedestrian" speed="3.65" length="2.34" shape="900.00,677.70 899.20,677.30 898.40,676.10"/>
    </edge>
    <edge id=":juncMain_22" function="internal">
        <lane id=":juncMain_22_0" index="0" disallow="pedestrian" speed="6.86" length="5.34" shape="882.50,682.40 885.26,682.01 887.22,680.82 887.36,680.60"/>
        <lane id=":juncMain_22_1" index="1" disallow="pedestrian" speed="7.64" length="7.67" shape="882.50,682.40 886.66,682.01 889.62,680.82 889.83,680.60"/>
    </edge>
    <edge id=":juncMain_24" function="internal">
        <lane id=":juncMain_24_0" index="0" disallow="pedestrian" speed="19.66" length="35.00" shape="882.50,682.40 917.50,682.40"/>
        <lane id=":juncMain_24_1" index="1" disallow="pedestrian" speed="19.66" length="35.00" shape="882.50,685.60 917.50,685.60"/>
        <lane id=":juncMain_24_2" index="2" disallow="pedestrian" speed="19.66" length="35.00" shape="882.50,688.80 917.50,688.80"/>
        <lane id=":juncMain_24_3" index="3" disallow="pedestrian" speed="19.66" length="35.00" shape="882.50,692.00 917.50,692.00"/>
        <lane id=":juncMain_24_4" index="4" disallow="pedestrian" speed="19.66" length="35.00" shape="882.50,695.20 917.50,695.20"/>
    </edge>
    <edge id=":juncMain_29" function="internal">
        <lane id=":juncMain_29_0" index="0" disallow="pedestrian" speed="12.95" length="17.47" shape="882.50,695.20 890.86,696.99 896.82,702.38 897.15,703.20"/>
        <lane id=":juncMain_29_1" index="1" disallow="pedestrian" speed="12.50" length="13.64" shape="882.50,698.40 890.86,699.99 894.86,703.20"/>
    </edge>
    <edge id=":juncMain_31" function="internal">
        <lane id=":juncMain_31_0" index="0" disallow="pedestrian" speed="3.65" length="2.34" shape="882.50,698.40 883.70,699.20 884.10,700.00"/>
    </edge>
    <edge id=":juncMain_43" function="internal">
        <lane id=":juncMain_43_0" index="0" disallow="pedestrian" speed="6.86" length="4.82" shape="887.36,680.60 888.41,678.86 888.80,676.10"/>
    </edge>
    <edge id=":juncMain_44" function="internal">
        <lane id=":juncMain_44_0" index="0" disallow="pedestrian" speed="7.64" length="5.17" shape="889.83,680.60 891.41,678.86 892.00,676.10"/>
    </edge>
    <edge id=":juncMain_45" function="internal">
        <lane id=":juncMain_45_0" index="0" disallow="pedestrian" speed="12.95" length="21.38" shape="897.15,703.20 900.41,711.34 901.60,723.90"/>
    </edge>
    <edge id=":juncMain_46" function="internal">
        <lane id=":juncMain_46_0" index="0" disallow="pedestrian" speed="12.50" length="22.48" shape="894.86,703.20 896.82,704.77 900.41,712.74 901.60,723.90"/>
    </edge>
    <edge id=":juncMain_47" function="internal">
        <lane id=":juncMain_47_0" index="0" disallow="pedestrian" speed="3.65" length="2.34" shape="884.10,700.00 883.70,700.80 882.50,701.60"/>
    </edge>
    <edge id=":juncMain_c0" function="crossing" crossingEdges="edgeN_I edgeN_O">
        <lane id=":juncMain_c0_0" index="0" allow="pedestrian" speed="1.00" length="25.60" width="4.50" shape="912.80,721.65 887.20,721.65"/>
    </edge>
    <edge id=":juncMain_c1" function="crossing" crossingEdges="edgeE_I edgeE_O">
        <lane id=":juncMain_c1_0" index="0" allow="pedestrian" speed="1.00" length="38.40" width="4.50" shape="915.25,680.80 915.25,719.20"/>
    </edge>
    <edge id=":juncMain_c2" function="crossing" crossingEdges="edgeS_I edgeS_O">
        <lane id=":juncMain_c2_0" index="0" allow="pedestrian" speed="1.00" length="25.60" width="4.50" shape="887.20,678.35 912.80,678.35"/>
    </edge>
    <edge id=":juncMain_c3" function="crossing" crossingEdges="edgeW_I edgeW_O">
        <lane id=":juncMain_c3_0" index="0" allow="pedestrian" speed="1.00" length="38.40" width="4.50" shape="884.75,719.20 884.75,680.80"/>
    </edge>
    <edge id=":juncMain_w0" function="walkingarea">
        <lane id=":juncMain_w0_0" index="0" allow="pedestrian" speed="1.00" length="3.82" width="4.50" shape="882.50,719.20 882.50,722.40 884.00,723.90 887.20,723.90 887.07,722.46 886.68,721.29 886.02,720.38 885.11,719.72 883.94,719.33"/>
    </edge>
    <edge id=":juncMain_w1" function="walkingarea">
        <lane id=":juncMain_w1_0" index="0" allow="pedestrian" speed="1.00" length="3.82" width="4.50" shape="912.80,723.90 916.00,723.90 917.50,722.40 917.50,719.20 916.06,719.33 914.89,719.72 913.98,720.38 913.32,721.29 912.93,722.46"/>
    </edge>
    <edge id=":juncMain_w2" function="walkingarea">
        <lane id=":juncMain_w2_0" index="0" allow="pedestrian" speed="1.00" length="3.82" width="4.50" shape="917.50,680.80 917.50,677.60 916.00,676.10 912.80,676.10 912.93,677.54 913.32,678.71 913.98,679.62 914.89,680.28 916.06,680.67"/>
    </edge>
    <edge id=":juncMain_w3" function="walkingarea">
        <lane id=":juncMain_w3_0" index="0" allow="pedestrian" speed="1.00" length="3.82" width="4.50" shape="887.20,676.10 884.00,676.10 882.50,677.60 882.50,680.80 883.94,680.67 885.11,680.28 886.02,679.62 886.68,678.71 887.07,677.54"/>
    </edge>
    <edge id=":juncN_0" function="internal">
        <lane id=":juncN_0_0" index="0" disallow="pedestrian" speed="3.65" length="4.67" shape="901.60,1500.00 900.80,1501.20 900.00,1501.60 899.20,1501.20 898.40,1500.00"/>
    </edge>
    <edge id=":juncN_w0" function="walkingarea">
        <lane id=":juncN_w0_0" index="0" allow="pedestrian" speed="1.00" length="28.80" width="3.20" shape="887.20,1500.00 884.00,1500.00 916.00,1500.00 912.80,1500.00"/>
    </edge>
    <edge id=":juncS_0" function="internal">
        <lane id=":juncS_0_0" index="0" disallow="pedestrian" speed="3.65" length="4.67" shape="898.40,0.00 899.20,-1.20 900.00,-1.60 900.80,-1.20 901.60,0.00"/>
    </edge>
    <edge id=":juncS_w0" function="walkingarea">
        <lane id=":juncS_w0_0" index="0" allow="pedestrian" speed="1.00" length="28.80" width="3.20" shape="912.80,0.00 916.00,0.00 884.00,0.00 887.20,0.00"/>
    </edge>
    <edge id=":juncW_0" function="internal">
        <lane id=":juncW_0_0" index="0" disallow="pedestrian" speed="3.65" length="4.67" shape="0.00,701.60 -1.20,700.80 -1.60,700.00 -1.20,699.20 0.00,698.40"/>
    </edge>
    <edge id=":juncW_w0" function="walkingarea">
        <lane id=":juncW_w0_0" index="0" allow="pedestrian" speed="1.00" length="41.60" width="3.20" shape="0.00,680.80 0.00,677.60 0.00,722.40 0.00,719.20"/>
    </edge>

    <edge id="edgeE_I" from="juncMain" to="juncE" priority="46">
        <lane id="edgeE_I_0" index="0" allow="pedestrian" speed="23.19" length="982.50" shape="917.50,679.20 1900.00,679.20"/>
        <lane id="edgeE_I_1" index="1" disallow="pedestrian" speed="23.19" length="982.50" shape="917.50,682.40 1900.00,682.40"/>
        <lane id="edgeE_I_2" index="2" disallow="pedestrian" speed="23.19" length="982.50" shape="917.50,685.60 1900.00,685.60"/>
        <lane id="edgeE_I_3" index="3" disallow="pedestrian" speed="23.19" length="982.50" shape="917.50,688.80 1900.00,688.80"/>
        <lane id="edgeE_I_4" index="4" disallow="pedestrian" speed="23.19" length="982.50" shape="917.50,692.00 1900.00,692.00"/>
        <lane id="edgeE_I_5" index="5" disallow="pedestrian" speed="23.19" length="982.50" shape="917.50,695.20 1900.00,695.20"/>
        <lane id="edgeE_I_6" index="6" disallow="pedestrian" speed="23.19" length="982.50" shape="917.50,698.40 1900.00,698.40"/>
    </edge>
    <edge id="edgeE_O" from="juncE" to="juncMain" priority="78">
        <lane id="edgeE_O_0" index="0" allow="pedestrian" speed="16.12" length="982.50" shape="1900.00,720.80 917.50,720.80"/>
        <lane id="edgeE_O_1" index="1" disallow="pedestrian" speed="16.12" length="982.50" shape="1900.00,717.60 917.50,717.60"/>
        <lane id="edgeE_O_2" index="2" disallow="pedestrian" speed="16.12" length="982.50" shape="1900.00,714.40 917.50,714.40"/>
        <lane id="edgeE_O_3" index="3" disallow="pedestrian" speed="16.12" length="982.50" shape="1900.00,711.20 917.50,711.20"/>
        <lane id="edgeE_O_4" index="4" disallow="pedestrian" speed="16.12" length="982.50" shape="1900.00,708.00 917.50,708.00"/>
        <lane id="edgeE_O_5" index="5" disallow="pedestrian" speed="16.12" length="982.50" shape="1900.00,704.80 917.50,704.80"/>
        <lane id="edgeE_O_6" index="6" disallow="pedestrian" speed="16.12" length="982.50" shape="1900.00,701.60 917.50,701.60"/>
    </edge>
    <edge id="edgeN_I" from="juncMain" to="juncN" priority="46">
        <lane id="edgeN_I_0" index="0" allow="pedestrian" speed="23.48" length="776.10" shape="914.40,723.90 914.40,1500.00"/>
        <lane id="edgeN_I_1" index="1" disallow="pedestrian" speed="23.48" length="776.10" shape="911.20,723.90 911.20,1500.00"/>
        <lane id="edgeN_I_2" index="2" disallow="pedestrian" speed="23.48" length="776.10" shape="908.00,723.90 908.00,1500.00"/>
        <lane id="edgeN_I_3" index="3" disallow="pedestrian" speed="23.48" length="776.10" shape="904.80,723.90 904.80,1500.00"/>
        <lane id="edgeN_I_4" index="4" disallow="pedestrian" speed="23.48" length="776.10" shape="901.60,723.90 901.60,1500.00"/>
    </edge>
    <edge id="edgeN_O" from="juncN" to="juncMain" priority="78">
        <lane id="edgeN_O_0" index="0" allow="pedestrian" speed="13.11" length="776.10" shape="885.60,1500.00 885.60,723.90"/>
        <lane id="edgeN_O_1" index="1" disallow="pedestrian" speed="13.11" length="776.10" shape="888.80,1500.00 888.80,723.90"/>
        <lane id="edgeN_O_2" index="2" disallow="pedestrian" speed="13.11" length="776.10" shape="892.00,1500.00 892.00,723.90"/>
        <lane id="edgeN_O_3" index="3" disallow="pedestrian" speed="13.11" length="776.10" shape="895.20,1500.00 895.20,723.90"/>
        <lane id="edgeN_O_4" index="4" disallow="pedestrian" speed="13.11" length="776.10" shape="898.40,1500.00 898.40,723.90"/>
    </edge>
    <edge id="edgeS_I" from="juncMain" to="juncS" priority="46">
        <lane id="edgeS_I_0" index="0" allow="pedestrian" speed="23.48" length="676.10" shape="885.60,676.10 885.60,0.00"/>
        <lane id="edgeS_I_1" index="1" disallow="pedestrian" speed="23.48" length="676.10" shape="888.80,676.10 888.80,0.00"/>
        <lane id="edgeS_I_2" index="2" disallow="pedestrian" speed="23.48" length="676.10" shape="892.00,676.10 892.00,0.00"/>
        <lane id="edgeS_I_3" index="3" disallow="pedestrian" speed="23.48" length="676.10" shape="895.20,676.10 895.20,0.00"/>
        <lane id="edgeS_I_4" index="4" disallow="pedestrian" speed="23.48" length="676.10" shape="898.40,676.10 898.40,0.00"/>
    </edge>
    <edge id="edgeS_O" from="juncS" to="juncMain" priority="78">
        <lane id="edgeS_O_0" index="0" allow="pedestrian" speed="13.11" length="676.10" shape="914.40,0.00 914.40,676.10"/>
        <lane id="edgeS_O_1" index="1" disallow="pedestrian" speed="13.11" length="676.10" shape="911.20,0.00 911.20,676.10"/>
        <lane id="edgeS_O_2" index="2" disallow="pedestrian" speed="13.11" length="676.10" shape="908.00,0.00 908.00,676.10"/>
        <lane id="edgeS_O_3" index="3" disallow="pedestrian" speed="13.11" length="676.10" shape="904.80,0.00 904.80,676.10"/>
        <lane id="edgeS_O_4" index="4" disallow="pedestrian" speed="13.11" length="676.10" shape="901.60,0.00 901.60,676.10"/>
    </edge>
    <edge id="edgeW_I" from="juncMain" to="juncW" priority="46">
        <lane id="edgeW_I_0" index="0" allow="pedestrian" speed="23.19" length="882.50" shape="882.50,720.80 0.00,720.80"/>
        <lane id="edgeW_I_1" index="1" disallow="pedestrian" speed="23.19" length="882.50" shape="882.50,717.60 0.00,717.60"/>
        <lane id="edgeW_I_2" index="2" disallow="pedestrian" speed="23.19" length="882.50" shape="882.50,714.40 0.00,714.40"/>
        <lane id="edgeW_I_3" index="3" disallow="pedestrian" speed="23.19" length="882.50" shape="882.50,711.20 0.00,711.20"/>
        <lane id="edgeW_I_4" index="4" disallow="pedestrian" speed="23.19" length="882.50" shape="882.50,708.00 0.00,708.00"/>
        <lane id="edgeW_I_5" index="5" disallow="pedestrian" speed="23.19" length="882.50" shape="882.50,704.80 0.00,704.80"/>
        <lane id="edgeW_I_6" index="6" disallow="pedestrian" speed="23.19" length="882.50" shape="882.50,701.60 0.00,701.60"/>
    </edge>
    <edge id="edgeW_O" from="juncW" to="juncMain" priority="78">
        <lane id="edgeW_O_0" index="0" allow="pedestrian" speed="16.12" length="882.50" shape="0.00,679.20 882.50,679.20"/>
        <lane id="edgeW_O_1" index="1" disallow="pedestrian" speed="16.12" length="882.50" shape="0.00,682.40 882.50,682.40"/>
        <lane id="edgeW_O_2" index="2" disallow="pedestrian" speed="16.12" length="882.50" shape="0.00,685.60 882.50,685.60"/>
        <lane id="edgeW_O_3" index="3" disallow="pedestrian" speed="16.12" length="882.50" shape="0.00,688.80 882.50,688.80"/>
        <lane id="edgeW_O_4" index="4" disallow="pedestrian" speed="16.12" length="882.50" shape="0.00,692.00 882.50,692.00"/>
        <lane id="edgeW_O_5" index="5" disallow="pedestrian" speed="16.12" length="882.50" shape="0.00,695.20 882.50,695.20"/>
        <lane id="edgeW_O_6" index="6" disallow="pedestrian" speed="16.12" length="882.50" shape="0.00,698.40 882.50,698.40"/>
    </edge>

    <tlLogic id="juncMain" type="static" programID="0" offset="0">
        <phase duration="28" state="rrrrrrggGGGGGgggrrrrrrggGGGGGgggGrGr"/>
        <phase duration="5"  state="rrrrrrggGGGGGgggrrrrrrggGGGGGgggrrrr"/>
        <phase duration="3"  state="rrrrrryyyyyyyyggrrrrrryyyyyyyyggrrrr"/>
        <phase duration="6"  state="rrrrrrrrrrrrrrGGrrrrrrrrrrrrrrGGrrrr"/>
        <phase duration="3"  state="rrrrrrrrrrrrrryyrrrrrrrrrrrrrryyrrrr"/>
        <phase duration="28" state="GGGgggrrrrrrrrrrGGGgggrrrrrrrrrrrGrG"/>
        <phase duration="5"  state="GGGgggrrrrrrrrrrGGGgggrrrrrrrrrrrrrr"/>
        <phase duration="3"  state="yyygggrrrrrrrrrryyygggrrrrrrrrrrrrrr"/>
        <phase duration="6"  state="rrrGGGrrrrrrrrrrrrrGGGrrrrrrrrrrrrrr"/>
        <phase duration="3"  state="rrryyyrrrrrrrrrrrrryyyrrrrrrrrrrrrrr"/>
    </tlLogic>

    <junction id="juncE" type="priority" x="1900.00" y="700.00" incLanes="edgeE_I_0 edgeE_I_1 edgeE_I_2 edgeE_I_3 edgeE_I_4 edgeE_I_5 edgeE_I_6" intLanes=":juncE_0_0" shape="1900.00,700.00 1900.00,677.60 1900.00,700.00">
        <request index="0" response="0" foes="0" cont="0"/>
    </junction>
    <junction id="juncMain" type="traffic_light" x="900.00" y="700.00" incLanes="edgeN_O_0 edgeN_O_1 edgeN_O_2 edgeN_O_3 edgeN_O_4 edgeE_O_0 edgeE_O_1 edgeE_O_2 edgeE_O_3 edgeE_O_4 edgeE_O_5 edgeE_O_6 edgeS_O_0 edgeS_O_1 edgeS_O_2 edgeS_O_3 edgeS_O_4 edgeW_O_0 edgeW_O_1 edgeW_O_2 edgeW_O_3 edgeW_O_4 edgeW_O_5 edgeW_O_6 :juncMain_w1_0 :juncMain_w2_0 :juncMain_w3_0 :juncMain_w0_0" intLanes=":juncMain_0_0 :juncMain_0_1 :juncMain_0_2 :juncMain_32_0 :juncMain_33_0 :juncMain_34_0 :juncMain_35_0 :juncMain_36_0 :juncMain_8_0 :juncMain_8_1 :juncMain_8_2 :juncMain_8_3 :juncMain_8_4 :juncMain_37_0 :juncMain_38_0 :juncMain_39_0 :juncMain_16_0 :juncMain_16_1 :juncMain_16_2 :juncMain_40_0 :juncMain_41_0 :juncMain_42_0 :juncMain_43_0 :juncMain_44_0 :juncMain_24_0 :juncMain_24_1 :juncMain_24_2 :juncMain_24_3 :juncMain_24_4 :juncMain_45_0 :juncMain_46_0 :juncMain_47_0 :juncMain_c0_0 :juncMain_c1_0 :juncMain_c2_0 :juncMain_c3_0" shape="884.00,723.90 916.00,723.90 916.17,723.07 916.38,722.77 916.67,722.57 917.04,722.44 917.50,722.40 917.50,677.60 916.67,677.43 916.38,677.23 916.17,676.93 916.04,676.56 916.00,676.10 884.00,676.10 883.83,676.93 883.62,677.23 883.33,677.43 882.96,677.56 882.50,677.60 882.50,722.40 883.33,722.57 883.62,722.77 883.83,723.07 883.96,723.44">
        <request index="0"  response="010101111111110000000001111100000000" foes="010101111111110110000001111100000000" cont="0"/>
        <request index="1"  response="010101111111110000000001111100000000" foes="010101111111110110000001111100000000" cont="0"/>
        <request index="2"  response="010101111111110000000001111100000000" foes="010101111111110110000001111100000000" cont="0"/>
        <request index="3"  response="001101111111000001110111111100000000" foes="001101111111000001111111111100000000" cont="1"/>
        <request index="4"  response="001101111111000001110111111100000000" foes="001101111111000001111111111100000000" cont="1"/>
        <request index="5"  response="000101100000000000000000000000000000" foes="000101100000000000000000000000000000" cont="1"/>
        <request index="6"  response="001100000000000000000000000000000000" foes="001100000000000001110000000000000000" cont="1"/>
        <request index="7"  response="001100000000000000000000000000000000" foes="001100000000000001110000000000000000" cont="1"/>
        <request index="8"  response="101000000000000110000000000000011000" foes="101001100000000111110000000000011111" cont="0"/>
        <request index="9"  response="101000000000000110000000000000011000" foes="101001100000000111110000000000011111" cont="0"/>
        <request index="10" response="101000000000000110000000000000011000" foes="101001100000000111110000000000011111" cont="0"/>
        <request index="11" response="101000000000000110000000000000011000" foes="101001100000000111110000000000011111" cont="0"/>
        <request index="12" response="101000000000000110000000000000011000" foes="101001100000000111110000000000011111" cont="0"/>
        <request index="13" response="011000011111000110000100000000011000" foes="011000011111001111110100000000011000" cont="1"/>
        <request index="14" response="011000011111000110000000000000011000" foes="011000011111001111110010000000011000" cont="1"/>
        <request index="15" response="001000000000000000000000000000011000" foes="001000000000000000000000000000011000" cont="1"/>
        <request index="16" response="010100011111000000000111111111000000" foes="010100011111000000000111111111011000" cont="0"/>
        <request index="17" response="010100011111000000000111111111000000" foes="010100011111000000000111111111011000" cont="0"/>
        <request index="18" response="010100011111000000000111111111000000" foes="010100011111000000000111111111011000" cont="0"/>
        <request index="19" response="110001111111000000000111111100000111" foes="110011111111000000000111111100000111" cont="1"/>
        <request index="20" response="110001111111000000000111111100000111" foes="110011111111000000000111111100000111" cont="1"/>
        <request index="21" response="010000000000000000000110000000000000" foes="010000000000000000000110000000000000" cont="1"/>
        <request index="22" response="110000000000000000000000000000000000" foes="110000000000000000000000000000000111" cont="1"/>
        <request index="23" response="110000000000000000000000000000000000" foes="110000000000000000000000000000000111" cont="1"/>
        <request index="24" response="101000000000000110000000000000011000" foes="101000000000000111110110000000011111" cont="0"/>
        <request index="25" response="101000000000000110000000000000011000" foes="101000000000000111110110000000011111" cont="0"/>
        <request index="26" response="101000000000000110000000000000011000" foes="101000000000000111110110000000011111" cont="0"/>
        <request index="27" response="101000000000000110000000000000011000" foes="101000000000000111110110000000011111" cont="0"/>
        <request index="28" response="101000000000000110000000000000011000" foes="101000000000000111110110000000011111" cont="0"/>
        <request index="29" response="100101000000000110000001111100011000" foes="100101000000000110000001111100111111" cont="1"/>
        <request index="30" response="100100000000000110000001111100011000" foes="100100100000000110000001111100111111" cont="1"/>
        <request index="31" response="100000000000000110000000000000000000" foes="100000000000000110000000000000000000" cont="1"/>
        <request index="32" response="000000000000000000000000000000000000" foes="000001100000000001110000000011111111" cont="0"/>
        <request index="33" response="000000000000000000000000000000000000" foes="000000011111000000001111111111011000" cont="0"/>
        <request index="34" response="000000000000000000000000000000000000" foes="000000000000111111110110000000000111" cont="0"/>
        <request index="35" response="000000000000000000000000000000000000" foes="000011111111110110000001111100000000" cont="0"/>
    </junction>
    <junction id="juncN" type="priority" x="900.00" y="1500.00" incLanes="edgeN_I_0 edgeN_I_1 edgeN_I_2 edgeN_I_3 edgeN_I_4" intLanes=":juncN_0_0" shape="900.00,1500.00 916.00,1500.00 900.00,1500.00">
        <request index="0" response="0" foes="0" cont="0"/>
    </junction>
    <junction id="juncS" type="priority" x="900.00" y="0.00" incLanes="edgeS_I_0 edgeS_I_1 edgeS_I_2 edgeS_I_3 edgeS_I_4" intLanes=":juncS_0_0" shape="900.00,0.00 884.00,0.00 900.00,0.00">
        <request index="0" response="0" foes="0" cont="0"/>
    </junction>
    <junction id="juncW" type="priority" x="0.00" y="700.00" incLanes="edgeW_I_0 edgeW_I_1 edgeW_I_2 edgeW_I_3 edgeW_I_4 edgeW_I_5 edgeW_I_6" intLanes=":juncW_0_0" shape="0.00,700.00 0.00,722.40 0.00,700.00">
        <request index="0" response="0" foes="0" cont="0"/>
    </junction>

    <junction id=":juncMain_32_0" type="internal" x="903.17" y="702.38" incLanes=":juncMain_3_0 edgeS_O_1 edgeS_O_2 edgeS_O_3" intLanes=":juncMain_8_0 :juncMain_8_1 :juncMain_8_2 :juncMain_8_3 :juncMain_8_4 :juncMain_13_0 :juncMain_13_1 :juncMain_15_0 :juncMain_16_0 :juncMain_16_1 :juncMain_16_2 :juncMain_24_0 :juncMain_24_1 :juncMain_24_2 :juncMain_24_3 :juncMain_24_4 :juncMain_29_0 :juncMain_29_1 :juncMain_c0_0 :juncMain_c1_0"/>
    <junction id=":juncMain_33_0" type="internal" x="903.17" y="704.77" incLanes=":juncMain_3_1 edgeS_O_1 edgeS_O_2 edgeS_O_3" intLanes=":juncMain_8_0 :juncMain_8_1 :juncMain_8_2 :juncMain_8_3 :juncMain_8_4 :juncMain_13_0 :juncMain_13_1 :juncMain_15_0 :juncMain_16_0 :juncMain_16_1 :juncMain_16_2 :juncMain_24_0 :juncMain_24_1 :juncMain_24_2 :juncMain_24_3 :juncMain_24_4 :juncMain_29_0 :juncMain_29_1 :juncMain_c0_0 :juncMain_c1_0"/>
    <junction id=":juncMain_34_0" type="internal" x="900.00" y="722.30" incLanes=":juncMain_5_0 edgeE_O_1 edgeS_O_1 edgeS_O_2 edgeS_O_3 edgeW_O_5 edgeW_O_6" intLanes=":juncMain_6_0 :juncMain_6_1 :juncMain_16_0 :juncMain_16_1 :juncMain_16_2 :juncMain_29_0 :juncMain_29_1 :juncMain_c0_0 :juncMain_c0_0"/>
    <junction id=":juncMain_35_0" type="internal" x="912.64" y="719.40" incLanes=":juncMain_6_0" intLanes=":juncMain_5_0 :juncMain_16_0 :juncMain_16_1 :juncMain_16_2 :juncMain_29_0 :juncMain_29_1 :juncMain_c0_0 :juncMain_c1_0"/>