<routes>
   <personFlow id="pRegN" begin="0" end="3000" personsPerHour="134.678456">
        <walk edges="edgeN_O edgeS_I" speed="1.576328"/>
    </personFlow>
   <personFlow id="pRegS" begin="0" end="3000" personsPerHour="1046.187203">
        <walk edges="edgeS_O edgeN_I" speed="0.955750"/>
    </personFlow>
   <personFlow id="pRegW" begin="0" end="3000" personsPerHour="872.039514">
        <walk edges="edgeW_O edgeE_I" speed="0.934098"/>
    </personFlow>
   <personFlow id="pRegE" begin="0" end="3000" personsPerHour="477.008193">
        <walk edges="edgeE_O edgeW_I" speed="1.332502"/>
    </personFlow>
   <personFlow id="pOppN" begin="0" end="3000" personsPerHour="957.014379" departPos="800.000000">
        <walk edges="edgeN_I edgeS_O" speed="0.959861"/>
    </personFlow>
   <personFlow id="pOppS" begin="0" end="3000" personsPerHour="169.402204" departPos="700.000000">
        <walk edges="edgeS_I edgeN_O" speed="0.909075"/>
    </personFlow>
   <personFlow id="pOppW" begin="0" end="3000" personsPerHour="320.095363" departPos="900.000000">
        <walk edges="edgeW_I edgeE_O" speed="1.012342"/>
    </personFlow>
   <personFlow id="pOppE" begin="0" end="3000" personsPerHour="553.132707" departPos="1000.000000">
        <walk edges="edgeE_I edgeW_O" speed="1.286740"/>
    </personFlow>

    <route id="edgeN_edgeN" edges="edgeN_O edgeN_I" />
    <route id="edgeN_edgeS" edges="edgeN_O edgeS_I" />
    <route id="edgeN_edgeW" edges="edgeN_O edgeW_I" />
    <route id="edgeN_edgeE" edges="edgeN_O edgeE_I" />
    <route id="edgeS_edgeN" edges="edgeS_O edgeN_I" />
    <route id="edgeS_edgeS" edges="edgeS_O edgeS_I" />
    <route id="edgeS_edgeW" edges="edgeS_O edgeW_I" />
    <route id="edgeS_edgeE" edges="edgeS_O edgeE_I" />
    <route id="edgeW_edgeN" edges="edgeW_O edgeN_I" />
    <route id="edgeW_edgeS" edges="edgeW_O edgeS_I" />
    <route id="edgeW_edgeW" edges="edgeW_O edgeW_I" />
    <route id="edgeW_edgeE" edges="edgeW_O edgeE_I" />
    <route id="edgeE_edgeN" edges="edgeE_O edgeN_I" />
    <route id="edgeE_edgeS" edges="edgeE_O edgeS_I" />
    <route id="edgeE_edgeW" edges="edgeE_O edgeW_I" />
    <route id="edgeE_edgeE" edges="edgeE_O edgeE_I" />
    
   <vType id="vehicleS_0" length="4.343000" accel="3.446000" decel="5.728000" sigma="0.5" minGap="2.507621" maxSpeed="120.389883" guiShape="passenger" />
   <vehicle id="straightS_0" type="vehicleS_0" route="edgeS_edgeN" depart="0" departLane="3" />

   <vType id="vehicleW_1" length="4.033000" accel="2.438000" decel="5.081000" sigma="0.5" minGap="2.507621" maxSpeed="120.389883" guiShape="passenger" />
   <vehicle id="straightW_1" type="vehicleW_1" route="edgeW_edgeE" depart="0" departLane="1" />

   <vType id="vehicleW_2" length="4.432000" accel="3.704000" decel="6.038000" sigma="0.5" minGap="2.507621" maxSpeed="120.389883" guiShape="passenger" />
   <vehicle id="straightW_2" type="vehicleW_2" route="edgeW_edgeE" depart="1" departLane="2" />

   <vType id="vehicleN_3" length="5.521000" accel="2.668000" decel="3.522000" sigma="0.5" minGap="2.507621" maxSpeed="120.389883" guiShape="passenger" />
   <vehicle id="leftN_3" type="vehicleN_3" route="edgeN_edgeE" depart="2" departLane="4" />

   <vType id="vehicleW_4" length="4.055000" accel="2.907000" decel="3.643000" sigma="0.5" minGap="2.507621" maxSpeed="120.389883" guiShape="passenger" />
   <vehicle id="straightW_4" type="vehicleW_4" route="edgeW_edgeE" depart="2" departLane="4" />

   <vType id="vehicleE_5" length="4.994000" accel="3.735000" decel="4.538000" sigma="0.5" minGap="2.507621" maxSpeed="120.389883" guiShape="passenger" />
   <vehicle id="straightE_5" type="vehicleE_5" route="edgeE_edgeW" depart="2" departLane="2" />

   <vType id="vehicleS_6" length="4.450000" accel="2.168000" decel="4.051000" sigma="0.5" minGap="2.507621" maxSpeed="120.389883" guiShape="passenger" />
   <vehicle id="straightS_6" type="vehicleS_6" route="edgeS_edgeN" depart="3" departLane="1" />

   <vType id="vehicleW_7" length="5.324000" accel="2.329000" decel="4.514000" sigma="0.5" minGap="2.507621" maxSpeed="120.389883" guiShape="passenger" />
   <vehicle id="straightW_7" type="vehicleW_7" route="edgeW_edgeE" depart="3" departLane="3" />

   <vType id="vehicleS_8" length="4.842000" accel="2.489000" decel="4.918000" sigma="0.5" minGap="2.507621" maxSpeed="120.389883" guiShape="passenger" />
   <vehicle id="straightS_8" type="vehicleS_8" route="edgeS_edgeN" depart="4" departLane="2" />

   <vType id="vehicleN_9" length="4.491000" accel="2.534000" decel="3.969000" sigma="0.5" minGap="2.507621" maxSpeed="120.389883" guiShape="passenger" />
   <vehicle id="leftN_9" type="vehicleN_9" route="edgeN_edgeE" depart="6" departLane="4" />

   <vType id="vehicleS_10" length="5.405000" accel="3.263000" decel="3.711000" sigma="0.5" minGap="2.507621" maxSpeed="120.389883" guiShape="passenger" />
   <vehicle id="straightS_10" type="vehicleS_10" route="edgeS_edgeN" depart="6" departLane="1" />

   <vType id="vehicleW_11" length="4.407000" accel="3.150000" decel="6.563000" sigma="0.5" minGap="2.507621" maxSpeed="120.389883" guiShape="passenger" />
   <vehicle id="straightW_11" type="vehicleW_11" route="edgeW_edgeE" depart="6" departLane="4" />

   <vType id="vehicleE_12" length="4.207000" accel="2.973000" decel="6.027000" sigma="0.5" minGap="2.507621" maxSpeed="120.389883" guiShape="passenger" />
   <vehicle id="uturnE_12" type="vehicleE_12" route="edgeE_edgeE" depart="6" departLane="6" />

   <vType id="vehicleS_13" length="5.077000" accel="3.173000" decel="4.625000" sigma="0.5" minGap="2.507621" maxSpeed="120.389883" guiShape="passenger" />
   <vehicle id="leftS_13" type="vehicleS_13" route="edgeS_edgeW" depart="7" departLane="4" />

   <vType id="vehicleS_14" length="5.079000" accel="3.057000" decel="4.180000" sigma="0.5" minGap="2.507621" maxSpeed="120.389883" guiShape="passenger" />
   <vehicle id="straightS_14" type="vehicleS_14" route="edgeS_edgeN" depart="8" departLane="3" />

   <vType id="vehicleW_15" length="4.239000" accel="2.019000" decel="5.899000" sigma="0.5" minGap="2.507621" maxSpeed="120.389883" guiShape="passenger" />
   <vehicle id="straightW_15" type="vehicleW_15" route="edgeW_edgeE" depart="8" departLane="3" />

   <vType id="vehicleW_16" length="5.336000" accel="3.000000" decel="3.923000" sigma="0.5" minGap="2.507621" maxSpeed="120.389883" guiShape="passenger" />
   <vehicle id="straightW_16" type="vehicleW_16" route="edgeW_edgeE" depart="9" departLane="3" />

   <vType id="vehicleE_17" length="4.016000" accel="3.820000" decel="6.491000" sigma="0.5" minGap="2.507621" maxSpeed="120.389883" guiShape="passenger" />
   <vehicle id="straightE_17" type="vehicleE_17" route="edgeE_edgeW" depart="10" departLane="3" />

   <vType id="vehicleN_18" length="4.896000" accel="2.166000" decel="5.936000" sigma="0.5" minGap="2.507621" maxSpeed="120.389883" guiShape="passenger" />
   <vehicle id="straightN_18" type="vehicleN_18" route="edgeN_edgeS" depart="11" departLane="1" />

   <vType id="vehicleE_19" length="5.505000" accel="2.334000" decel="5.165000" sigma="0.5" minGap="2.507621" maxSpeed="120.389883" guiShape="passenger" />
   <vehicle id="straightE_19" type="vehicleE_19" route="edgeE_edgeW" depart="11" departLane="5" />

   <vType id="vehicleN_20" length="4.851000" accel="3.433000" decel="3.931000" sigma="0.5" minGap="2.507621" maxSpeed="120.389883" guiShape="passenger" />
   <vehicle id="straightN_20" type="vehicleN_20" route="edgeN_edgeS" depart="12" departLane="2" />

   <vType id="vehicleE_21" length="4.710000" accel="2.495000" decel="3.413000" sigma="0.5" minGap="2.507621" maxSpeed="120.389883" guiShape="passenger" />
   <vehicle id="straightE_21" type="vehicleE_21" route="edgeE_edgeW" depart="12" departLane="1" />

   <vType id="vehicleS_22" length="4.099000" accel="3.241000" decel="4.036000" sigma="0.5" minGap="2.507621" maxSpeed="120.389883" guiShape="passenger" />
   <vehicle id="straightS_22" type="vehicleS_22" route="edgeS_edgeN" depart="13" departLane="1" />

   <vType id="vehicleE_23" length="5.059000" accel="2.430000" decel="3.671000" sigma="0.5" minGap="2.507621" maxSpeed="120.389883" guiShape="passenger" />
   <vehicle id="straightE_23" type="vehicleE_23" route="edgeE_edgeW" depart="13" departLane="5" />

   <vType id="vehicleS_24" length="4.638000" accel="2.196000" decel="5.661000" sigma="0.5" minGap="2.507621" maxSpeed="120.389883" guiShape="passenger" />
   <vehicle id="straightS_24" type="vehicleS_24" route="edgeS_edgeN" depart="14" departLane="2" />

   <vType id="vehicleW_25" length="5.155000" accel="3.323000" decel="6.889000" sigma="0.5" minGap="2.507621" maxSpeed="120.389883" guiShape="passenger" />
   <vehicle id="straightW_25" type="vehicleW_25" route="edgeW_edgeE" depart="14" departLane="1" />

   <vType id="vehicleE_26" length="5.270000" accel="2.225000" decel="3.895000" sigma="0.5" minGap="2.507621" maxSpeed="120.389883" guiShape="passenger" />
   <vehicle id="straightE_26" type="vehicleE_26" route="edgeE_edgeW" depart="14" departLane="5" />

   <vType id="vehicleN_27" length="4.432000" accel="2.499000" decel="6.659000" sigma="0.5" minGap="2.507621" maxSpeed="120.389883" guiShape="passenger" />
   <vehicle id="straightN_27" type="vehicleN_27" route="edgeN_edgeS" depart="15" departLane="2" />

   <vType id="vehicleE_28" length="4.853000" accel="2.041000" decel="3.524000" sigma="0.5" minGap="2.507621" maxSpeed="120.389883" guiShape="passenger" />
   <vehicle id="straightE_28" type="vehicleE_28" route="edgeE_edgeW" depart="15" departLane="2" />

   <vType id="vehicleN_29" length="4.328000" accel="2.793000" decel="3.393000" sigma="0.5" minGap="2.507621" maxSpeed="120.389883" guiShape="passenger" />
   <vehicle id="straightN_29" type="vehicleN_29" route="edgeN_edgeS" depart="16" departLane="2" />

   <vType id="vehicleS_30" length="5.472000" accel="3.540000" decel="4.249000" sigma="0.5" minGap="2.507621" maxSpeed="120.389883" guiShape="passenger" />
   <vehicle id="straightS_30" type="vehicleS_30" route="edgeS_edgeN" depart="16" departLane="3" />

   <vType id="vehicleW_31" length="5.540000" accel="3.140000" decel="5.220000" sigma="0.5" minGap="2.507621" maxSpeed="120.389883" guiShape="passenger" />
   <vehicle id="straightW_31" type="vehicleW_31" route="edgeW_edgeE" depart="17" departLane="3" />

   <vType id="vehicleE_32" length="4.792000" accel="3.672000" decel="3.766000" sigma="0.5" minGap="2.507621" maxSpeed="120.389883" guiShape="passenger" />
   <vehicle id="straightE_32" type="vehicleE_32" route="edgeE_edgeW" depart="17" departLane="5" />

   <vType id="vehicleN_33" length="4.940000" accel="3.326000" decel="4.060000" sigma="0.5" minGap="2.507621" maxSpeed="120.389883" guiShape="passenger" />
   <vehicle id="straightN_33" type="vehicleN_33" route="edgeN_edgeS" depart="18" departLane="1" />

   <vType id="vehicleN_34" length="5.040000" accel="3.112000" decel="4.367000" sigma="0.5" minGap="2.507621" maxSpeed="120.389883" guiShape="passenger" />
   <vehicle id="leftN_34" type="vehicleN_34" route="edgeN_edgeE" depart="19" departLane="4" />

   <vType id="vehicleS_35" length="4.368000" accel="2.783000" decel="5.709000" sigma="0.5" minGap="2.507621" maxSpeed="120.389883" guiShape="passenger" />
   <vehicle id="straightS_35" type="vehicleS_35" route="edgeS_edgeN" depart="19" departLane="2" />

   <vType id="vehicleS_36" length="4.889000" accel="2.207000" decel="5.203000" sigma="0.5" minGap="2.507621" maxSpeed="120.389883" guiShape="passenger" />
   <vehicle id="straightS_36" type="vehicleS_36" route="edgeS_edgeN" depart="20" departLane="3" />

   <vType id="vehicleW_37" length="5.399000" accel="3.723000" decel="4.568000" sigma="0.5" minGap="2.507621" maxSpeed="120.389883" guiShape="passenger" />
   <vehicle id="rightW_37" type="vehicleW_37" route="edgeW_edgeS" depart="20" departLane="1" />

   <vType id="vehicleE_38" length="4.471000" accel="3.927000" decel="6.221000" sigma="0.5" minGap="2.507621" maxSpeed="120.389883" guiShape="passenger" />
   <vehicle id="straightE_38" type="vehicleE_38" route="edgeE_edgeW" depart="20" departLane="5" />

   <vType id="vehicleN_39" length="4.466000" accel="3.303000" decel="6.719000" sigma="0.5" minGap="2.507621" maxSpeed="120.389883" guiShape="passenger" />
   <vehicle id="straightN_39" type="vehicleN_39" route="edgeN_edgeS" depart="21" departLane="1" />

   <vType id="vehicleN_40" length="4.323000" accel="2.680000" decel="5.769000" sigma="0.5" minGap="2.507621" maxSpeed="120.389883" guiShape="passenger" />
   <vehicle id="straightN_40" type="vehicleN_40" route="edgeN_edgeS" depart="22" departLane="2" />

   <vType id="vehicleW_41" length="4.067000" accel="3.247000" decel="6.305000" sigma="0.5" minGap="2.507621" maxSpeed="120.389883" guiShape="passenger" />
   <vehicle id="straightW_41" type="vehicleW_41" route="edgeW_edgeE" depart="22" departLane="1" />

   <vType id="vehicleE_42" length="5.008000" accel="2.522000" decel="5.972000" sigma="0.5" minGap="2.507621" maxSpeed="120.389883" guiShape="passenger" />
   <vehicle id="straightE_42" type="vehicleE_42" route="edgeE_edgeW" depart="22" departLane="5" />

   <vType id="vehicleW_43" length="5.094000" accel="2.303000" decel="3.308000" sigma="0.5" minGap="2.507621" maxSpeed="120.389883" guiShape="passenger" />
   <vehicle id="rightW_43" type="vehicleW_43" route="edgeW_edgeS" depart="23" departLane="1" />

   <vType id="vehicleN_44" length="4.480000" accel="3.762000" decel="6.179000" sigma="0.5" minGap="2.507621" maxSpeed="120.389883" guiShape="passenger" />
   <vehicle id="leftN_44" type="vehicleN_44" route="edgeN_edgeE" depart="24" departLane="4" />

   <vType id="vehicleW_45" length="4.150000" accel="3.530000" decel="6.512000" sigma="0.5" minGap="2.507621" maxSpeed="120.389883" guiShape="passenger" />
   <vehicle id="straightW_45" type="vehicleW_45" route="edgeW_edgeE" depart="24" departLane="4" />

   <vType id="vehicleW_46" length="5.269000" accel="2.357000" decel="4.729000" sigma="0.5" minGap="2.507621" maxSpeed="120.389883" guiShape="passenger" />
   <vehicle id="straightW_46" type="vehicleW_46" route="edgeW_edgeE" depart="25" departLane="2" />

   <vType id="vehicleN_47" length="5.273000" accel="3.694000" decel="6.234000" sigma="0.5" minGap="2.507621" maxSpeed="120.389883" guiShape="passenger" />
   <vehicle id="straightN_47" type="vehicleN_47" route="edgeN_edgeS" depart="26" departLane="2" />

   <vType id="vehicleS_48" length="4.599000" accel="2.088000" decel="4.950000" sigma="0.5" minGap="2.507621" maxSpeed="120.389883" guiShape="passenger" />
   <vehicle id="straightS_48" type="vehicleS_48" route="edgeS_edgeN" depart="26" departLane="1" />

   <vType id="vehicleE_49" length="5.262000" accel="2.456000" decel="3.261000" sigma="0.5" minGap="2.507621" maxSpeed="120.389883" guiShape="passenger" />
   <vehicle id="straightE_49" type="vehicleE_49" route="edgeE_edgeW" depart="26" departLane="2" />

   <vType id="vehicleN_50" length="4.096000" accel="3.517000" decel="4.498000" sigma="0.5" minGap="2.507621" maxSpeed="120.389883" guiShape="passenger" />
   <vehicle id="straightN_50" type="vehicleN_50" route="edgeN_edgeS" depart="27" departLane="3" />

   <vType id="vehicleS_51" length="4.272000" accel="3.885000" decel="4.174000" sigma="0.5" minGap="2.507621" maxSpeed="120.389883" guiShape="passenger" />
   <vehicle id="uturnS_51" type="vehicleS_51" route="edgeS_edgeS" depart="28" departLane="4" />

   <vType id="vehicleW_52" length="5.154000" accel="2.623000" decel="5.462000" sigma="0.5" minGap="2.507621" maxSpeed="120.389883" guiShape="passenger" />
   <vehicle id="straightW_52" type="vehicleW_52" route="edgeW_edgeE" depart="28" departLane="5" />

   <vType id="vehicleE_53" length="4.290000" accel="2.099000" decel="4.819000" sigma="0.5" minGap="2.507621" maxSpeed="120.389883" guiShape="passenger" />
   <vehicle id="straightE_53" type="vehicleE_53" route="edgeE_edgeW" depart="28" departLane="5" />

   <vType id="vehicleW_54" length="4.515000" accel="2.623000" decel="6.375000" sigma="0.5" minGap="2.507621" maxSpeed="120.389883" guiShape="passenger" />
   <vehicle id="straightW_54" type="vehicleW_54" route="edgeW_edgeE" depart="30" departLane="3" />

   <vType id="vehicleN_55" length="4.594000" accel="3.468000" decel="3.829000" sigma="0.5" minGap="2.507621" maxSpeed="120.389883" guiShape="passenger" />
   <vehicle id="straightN_55" type="vehicleN_55" route="edgeN_edgeS" depart="32" departLane="3" />

   <vType id="vehicleE_56" length="4.675000" accel="3.141000" decel="5.645000" sigma="0.5" minGap="2.507621" maxSpeed="120.389883" guiShape="passenger" />
   <vehicle id="straightE_56" type="vehicleE_56" route="edgeE_edgeW" depart="32" departLane="4" />

   <vType id="vehicleN_57" length="4.806000" accel="3.557000" decel="6.798000" sigma="0.5" minGap="2.507621" maxSpeed="120.389883" guiShape="passenger" />
   <vehicle id="straightN_57" type="vehicleN_57" route="edgeN_edgeS" depart="33" departLane="3" />

   <vType id="vehicleS_58" length="4.812000" accel="3.244000" decel="4.438000" sigma="0.5" minGap="2.507621" maxSpeed="120.389883" guiShape="passenger" />
   <vehicle id="leftS_58" type="vehicleS_58" route="edgeS_edgeW" depart="33" departLane="4" />

   <vType id="vehicleE_59" length="4.024000" accel="2.489000" decel="4.966000" sigma="0.5" minGap="2.507621" maxSpeed="120.389883" guiShape="passenger" />
   <vehicle id="straightE_59" type="vehicleE_59" route="edgeE_edgeW" depart="33" departLane="1" />

   <vType id="vehicleN_60" length="4.909000" accel="3.410000" decel="4.622000" sigma="0.5" minGap="2.507621" maxSpeed="120.389883" guiShape="passenger" />
   <vehicle id="straightN_60" type="vehicleN_60" route="edgeN_edgeS" depart="34" departLane="2" />

   <vType id="vehicleS_61" length="3.994000" accel="3.474000" decel="6.081000" sigma="0.5" minGap="2.507621" maxSpeed="120.389883" guiShape="passenger" />
   <vehicle id="straightS_61" type="vehicleS_61" route="edgeS_edgeN" depart="34" departLane="1" />

   <vType id="vehicleE_62" length="5.102000" accel="2.917000" decel="5.277000" sigma="0.5" minGap="2.507621" maxSpeed="120.389883" guiShape="passenger" />
   <vehicle id="straightE_62" type="vehicleE_62" route="edgeE_edgeW" depart="34" departLane="1" />

   <vType id="vehicleN_63" length="5.057000" accel="3.935000" decel="5.421000" sigma="0.5" minGap="2.507621" maxSpeed="120.389883" guiShape="passenger" />
   <vehicle id="straightN_63" type="vehicleN_63" route="edgeN_edgeS" depart="35" departLane="2" />

   <vType id="vehicleN_64" length="4.382000" accel="3.253000" decel="6.065000" sigma="0.5" minGap="2.507621" maxSpeed="120.389883" guiShape="passenger" />
   <vehicle id="straightN_64" type="vehicleN_64" route="edgeN_edgeS" depart="37" departLane="3" />

   <vType id="vehicleW_65" length="5.130000" accel="2.469000" decel="4.440000" sigma="0.5" minGap="2.507621" maxSpeed="120.389883" guiShape="passenger" />
   <vehicle id="straightW_65" type="vehicleW_65" route="edgeW_edgeE" depart="37" departLane="5" />

   <vType id="vehicleE_66" length="4.600000" accel="2.310000" decel="3.980000" sigma="0.5" minGap="2.507621" maxSpeed="120.389883" guiShape="passenger" />
   <vehicle id="straightE_66" type="vehicleE_66" route="edgeE_edgeW" depart="37" departLane="4" />

   <vType id="vehicleN_67" length="4.652000" accel="2.415000" decel="4.759000" sigma="0.5" minGap="2.507621" maxSpeed="120.389883" guiShape="passenger" />
   <vehicle id="straightN_67" type="vehicleN_67" route="edgeN_edgeS" depart="38" departLane="3" />

   <vType id="vehicleW_68" length="4.909000" accel="2.941000" decel="6.733000" sigma="0.5" minGap="2.507621" maxSpeed="120.389883" guiShape="passenger" />
   <vehicle id="straightW_68" type="vehicleW_68" route="edgeW_edgeE" depart="38" departLane="3" />

   <vType id="vehicleW_69" length="4.862000" accel="3.186000" decel="4.005000" sigma="0.5" minGap="2.507621" maxSpeed="120.389883" guiShape="passenger" />
   <vehicle id="straightW_69" type="vehicleW_69" route="edgeW_edgeE" depart="39" departLane="2" />

   <vType id="vehicleE_70" length="4.609000" accel="3.314000" decel="6.187000" sigma="0.5" minGap="2.507621" maxSpeed="120.389883" guiShape="passenger" />
   <vehicle id="straightE_70" type="vehicleE_70" route="edgeE_edgeW" depart="39" departLane="2" />

   <vType id="vehicleE_71" length="5.376000" accel="2.366000" decel="4.154000" sigma="0.5" minGap="2.507621" maxSpeed="120.389883" guiShape="passenger" />
   <vehicle id="straightE_71" type="vehicleE_71" route="edgeE_edgeW" depart="41" departLane="3" />

   <vType id="vehicleN_72" length="5.207000" accel="2.750000" decel="6.012000" sigma="0.5" minGap="2.507621" maxSpeed="120.389883" guiShape="passenger" />
   <vehicle id="straightN_72" type="vehicleN_72" route="edgeN_edgeS" depart="42" departLane="2" />

   <vType id="vehicleS_73" length="4.016000" accel="3.062000" decel="6.949000" sigma="0.5" minGap="2.507621" maxSpeed="120.389883" guiShape="passenger" />
   <vehicle id="leftS_73" type="vehicleS_73" route="edgeS_edgeW" depart="42" departLane="4" />

   <vType id="vehicleW_74" length="5.522000" accel="2.091000" decel="3.289000" sigma="0.5" minGap="2.507621" maxSpeed="120.389883" guiShape="passenger" />
   <vehicle id="straightW_74" type="vehicleW_74" route="edgeW_edgeE" depart="42" departLane="2" />

   <vType id="vehicleE_75" length="4.230000" accel="2.258000" decel="5.701000" sigma="0.5" minGap="2.507621" maxSpeed="120.389883" guiShape="passenger" />
   <vehicle id="straightE_75" type="vehicleE_75" route="edgeE_edgeW" depart="42" departLane="5" />

   <vType id="vehicleW_76" length="4.958000" accel="3.888000" decel="5.885000" sigma="0.5" minGap="2.507621" maxSpeed="120.389883" guiShape="passenger" />
   <vehicle id="straightW_76" type="vehicleW_76" route="edgeW_edgeE" depart="43" departLane="2" />

   <vType id="vehicleN_77" length="4.486000" accel="3.330000" decel="6.791000" sigma="0.5" minGap="2.507621" maxSpeed="120.389883" guiShape="passenger" />
   <vehicle id="leftN_77" type="vehicleN_77" route="edgeN_edgeE" depart="44" departLane="4" />

   <vType id="vehicleW_78" length="5.318000" accel="2.485000" decel="5.805000" sigma="0.5" minGap="2.507621" maxSpeed="120.389883" guiShape="passenger" />
   <vehicle id="straightW_78" type="vehicleW_78" route="edgeW_edgeE" depart="44" departLane="3" />

   <vType id="vehicleS_79" length="5.241000" accel="2.688000" decel="4.790000" sigma="0.5" minGap="2.507621" maxSpeed="120.389883" guiShape="passenger" />
   <vehicle id="uturnS_79" type="vehicleS_79" route="edgeS_edgeS" depart="45" departLane="4" />

   <vType id="vehicleW_80" length="4.533000" accel="3.666000" decel="6.278000" sigma="0.5" minGap="2.507621" maxSpeed="120.389883" guiShape="passenger" />
   <vehicle id="straightW_80" type="vehicleW_80" route="edgeW_edgeE" depart="45" departLane="1" />

   <vType id="vehicleE_81" length="5.416000" accel="2.907000" decel="3.749000" sigma="0.5" minGap="2.507621" maxSpeed="120.389883" guiShape="passenger" />
   <vehicle id="straightE_81" type="vehicleE_81" route="edgeE_edgeW" depart="45" departLane="2" />

   <vType id="vehicleW_82" length="4.849000" accel="2.953000" decel="4.817000" sigma="0.5" minGap="2.507621" maxSpeed="120.389883" guiShape="passenger" />
   <vehicle id="straightW_82" type="vehicleW_82" route="edgeW_edgeE" depart="46" departLane="5" />

   <vType id="vehicleE_83" length="5.318000" accel="2.181000" decel="6.502000" sigma="0.5" minGap="2.507621" maxSpeed="120.389883" guiShape="passenger" />
   <vehicle id="straightE_83" type="vehicleE_83" route="edgeE_edgeW" depart="46" departLane="2" />

   <vType id="vehicleE_84" length="4.507000" accel="2.961000" decel="4.512000" sigma="0.5" minGap="2.507621" maxSpeed="120.389883" guiShape="passenger" />
   <vehicle id="straightE_84" type="vehicleE_84" route="edgeE_edgeW" depart="47" departLane="3" />

   <vType id="vehicleN_85" length="5.111000" accel="2.550000" decel="3.210000" sigma="0.5" minGap="2.507621" maxSpeed="120.389883" guiShape="passenger" />
   <vehicle id="straightN_85" type="vehicleN_85" route="edgeN_edgeS" depart="48" departLane="1" />

   <vType id="vehicleS_86" length="4.769000" accel="3.488000" decel="5.780000" sigma="0.5" minGap="2.507621" maxSpeed="120.389883" guiShape="passenger" />
   <vehicle id="straightS_86" type="vehicleS_86" route="edgeS_edgeN" depart="48" departLane="3" />

   <vType id="vehicleE_87" length="4.457000" accel="2.800000" decel="4.091000" sigma="0.5" minGap="2.507621" maxSpeed="120.389883" guiShape="passenger" />
   <vehicle id="leftE_87" type="vehicleE_87" route="edgeE_edgeS" depart="48" departLane="6" />

   <vType id="vehicleN_88" length="4.668000" accel="3.464000" decel="4.421000" sigma="0.5" minGap="2.507621" maxSpeed="120.389883" guiShape="passenger" />
   <vehicle id="straightN_88" type="vehicleN_88" route="edgeN_edgeS" depart="49" departLane="3" />

   <vType id="vehicleW_89" length="5.143000" accel="2.627000" decel="5.978000" sigma="0.5" minGap="2.507621" maxSpeed="120.389883" guiShape="passenger" />
   <vehicle id="straightW_89" type="vehicleW_89" route="edgeW_edgeE" depart="49" departLane="2" />

   <vType id="vehicleE_90" length="4.429000" accel="3.160000" decel="6.043000" sigma="0.5" minGap="2.507621" maxSpeed="120.389883" guiShape="passenger" />
   <vehicle id="straightE_90" type="vehicleE_90" route="edgeE_edgeW" depart="49" departLane="5" />

   <vType id="vehicleN_91" length="4.297000" accel="2.455000" decel="3.849000" sigma="0.5" minGap="2.507621" maxSpeed="120.389883" guiShape="passenger" />
   <vehicle id="leftN_91" type="vehicleN_91" route="edgeN_edgeE" depart="50" departLane="4" />

   <vType id="vehicleW_92" length="4.073000" accel="2.581000" decel="6.738000" sigma="0.5" minGap="2.507621" maxSpeed="120.389883" guiShape="passenger" />
   <vehicle id="straightW_92" type="vehicleW_92" route="edgeW_edgeE" depart="50" departLane="4" />

   <vType id="vehicleE_93" length="4.441000" accel="2.944000" decel="4.459000" sigma="0.5" minGap="2.507621" maxSpeed="120.389883" guiShape="passenger" />
   <vehicle id="leftE_93" type="vehicleE_93" route="edgeE_edgeS" depart="50" departLane="5" />

   <vType id="vehicleN_94" length="4.168000" accel="2.140000" decel="5.029000" sigma="0.5" minGap="2.507621" maxSpeed="120.389883" guiShape="passenger" />
   <vehicle id="straightN_94" type="vehicleN_94" route="edgeN_edgeS" depart="51" departLane="3" />

   <vType id="vehicleW_95" length="4.888000" accel="2.604000" decel="6.926000" sigma="0.5" minGap="2.507621" maxSpeed="120.389883" guiShape="passenger" />
   <vehicle id="straightW_95" type="vehicleW_95" route="edgeW_edgeE" depart="51" departLane="1" />

   <vType id="vehicleN_96" length="4.978000" accel="3.522000" decel="4.608000" sigma="0.5" minGap="2.507621" maxSpeed="120.389883" guiShape="passenger" />
   <vehicle id="straightN_96" type="vehicleN_96" route="edgeN_edgeS" depart="52" departLane="2" />

   <vType id="vehicleE_97" length="4.082000" accel="3.881000" decel="3.546000" sigma="0.5" minGap="2.507621" maxSpeed="120.389883" guiShape="passenger" />
   <vehicle id="straightE_97" type="vehicleE_97" route="edgeE_edgeW" depart="52" departLane="2" />

   <vType id="vehicleW_98" length="4.871000" accel="2.317000" decel="4.715000" sigma="0.5" minGap="2.507621" maxSpeed="120.389883" guiShape="passenger" />
   <vehicle id="straightW_98" type="vehicleW_98" route="edgeW_edgeE" depart="53" departLane="5" />

   <vType id="vehicleE_99" length="4.447000" accel="2.563000" decel="6.419000" sigma="0.5" minGap="2.507621" maxSpeed="120.389883" guiShape="passenger" />
   <vehicle id="straightE_99" type="vehicleE_99" route="edgeE_edgeW" depart="53" departLane="1" />

   <vType id="vehicleW_100" length="5.025000" accel="3.780000" decel="6.294000" sigma="0.5" minGap="2.507621" maxSpeed="120.389883" guiShape="passenger" />
   <vehicle id="straightW_100" type="vehicleW_100" route="edgeW_edgeE" depart="55" departLane="1" />

   <vType id="vehicleE_101" length="4.940000" accel="3.616000" decel="6.652000" sigma="0.5" minGap="2.507621" maxSpeed="120.389883" guiShape="passenger" />
   <vehicle id="straightE_101" type="vehicleE_101" route="edgeE_edgeW" depart="55" departLane="4" />

   <vType id="vehicleN_102" length="5.108000" accel="3.847000" decel="5.062000" sigma="0.5" minGap="2.507621" maxSpeed="120.389883" guiShape="passenger" />
   <vehicle id="straightN_102" type="vehicleN_102" route="edgeN_edgeS" depart="56" departLane="2" />

   <vType id="vehicleW_103" length="5.067000" accel="3.687000" decel="5.390000" sigma="0.5" minGap="2.507621" maxSpeed="120.389883" guiShape="passenger" />
   <vehicle id="straightW_103" type="vehicleW_103" route="edgeW_edgeE" depart="57" departLane="1" />

   <vType id="vehicleW_104" length="4.740000" accel="3.280000" decel="6.632000" sigma="0.5" minGap="2.507621" maxSpeed="120.389883" guiShape="passenger" />
   <vehicle id="straightW_104" type="vehicleW_104" route="edgeW_edgeE" depart="58" departLane="2" />

   <vType id="vehicleN_105" length="5.540000" accel="2.927000" decel="4.714000" sigma="0.5" minGap="2.507621" maxSpeed="120.389883" guiShape="passenger" />
   <vehicle id="straightN_105" type="vehicleN_105" route="edgeN_edgeS" depart="59" departLane="2" />

   <vType id="vehicleE_106" length="4.448000" accel="3.852000" decel="6.245000" sigma="0.5" minGap="2.507621" maxSpeed="120.389883" guiShape="passenger" />
   <vehicle id="straightE_106" type="vehicleE_106" route="edgeE_edgeW" depart="59" departLane="5" />

   <vType id="vehicleN_107" length="4.390000" accel="2.238000" decel="6.090000" sigma="0.5" minGap="2.507621" maxSpeed="120.389883" guiShape="passenger" />
   <vehicle id="leftN_107" type="vehicleN_107" route="edgeN_edgeE" depart="60" departLane="4" />

   <vType id="vehicleE_108" length="4.566000" accel="3.484000" decel="5.534000" sigma="0.5" minGap="2.507621" maxSpeed="120.389883" guiShape="passenger" />
   <vehicle id="straightE_108" type="vehicleE_108" route="edgeE_edgeW" depart="60" departLane="1" />
