<additional>
   <tlLogic id="juncMain" type="static" programID="1" offset="0">
       <phase duration="55.700335" state="ggGggGggrrrggGggGggrrrrGrG"/>
       <phase duration="3.692903" state="yyyyyyyyrrryyyyyyyyrrrrGrG"/>
       <phase duration="13.194448" state="rrrrrrrrrrrrrrrrrrrrrrrGrG"/>
       <phase duration="29.882609" state="rrrrrrrrrGGrrrrrrrrrGGrrrr"/>
       <phase duration="78.703015" state="rrrrrrrrGggrrrrrrrrGggGrGr"/>
       <phase duration="3.824703" state="rrrrrrrryyyrrrrrrrryyyGrGr"/>
       <phase duration="10.936235" state="rrrrrrrrrrrrrrrrrrrrrrGrGr"/>
   </tlLogic>
</additional>
