<routes>
   <personFlow id="pRegN" begin="0" end="3000" personsPerHour="501.719062">
        <walk edges="edgeN_O edgeS_I" speed="1.025203"/>
    </personFlow>
   <personFlow id="pRegS" begin="0" end="3000" personsPerHour="871.582107">
        <walk edges="edgeS_O edgeN_I" speed="1.334514"/>
    </personFlow>
   <personFlow id="pRegW" begin="0" end="3000" personsPerHour="497.718591">
        <walk edges="edgeW_O edgeE_I" speed="1.743370"/>
    </personFlow>
   <personFlow id="pRegE" begin="0" end="3000" personsPerHour="808.283418">
        <walk edges="edgeE_O edgeW_I" speed="1.809817"/>
    </personFlow>
   <personFlow id="pOppN" begin="0" end="3000" personsPerHour="835.643613" departPos="1000.000000">
        <walk edges="edgeN_I edgeS_O" speed="1.926303"/>
    </personFlow>
   <personFlow id="pOppS" begin="0" end="3000" personsPerHour="912.818373" departPos="300.000000">
        <walk edges="edgeS_I edgeN_O" speed="1.483971"/>
    </personFlow>
   <personFlow id="pOppW" begin="0" end="3000" personsPerHour="723.160974" departPos="600.000000">
        <walk edges="edgeW_I edgeE_O" speed="2.111842"/>
    </personFlow>
   <personFlow id="pOppE" begin="0" end="3000" personsPerHour="954.565961" departPos="800.000000">
        <walk edges="edgeE_I edgeW_O" speed="1.372593"/>
    </personFlow>

    <route id="edgeN_edgeN" edges="edgeN_O edgeN_I" />
    <route id="edgeN_edgeS" edges="edgeN_O edgeS_I" />
    <route id="edgeN_edgeW" edges="edgeN_O edgeW_I" />
    <route id="edgeN_edgeE" edges="edgeN_O edgeE_I" />
    <route id="edgeS_edgeN" edges="edgeS_O edgeN_I" />
    <route id="edgeS_edgeS" edges="edgeS_O edgeS_I" />
    <route id="edgeS_edgeW" edges="edgeS_O edgeW_I" />
    <route id="edgeS_edgeE" edges="edgeS_O edgeE_I" />
    <route id="edgeW_edgeN" edges="edgeW_O edgeN_I" />
    <route id="edgeW_edgeS" edges="edgeW_O edgeS_I" />
    <route id="edgeW_edgeW" edges="edgeW_O edgeW_I" />
    <route id="edgeW_edgeE" edges="edgeW_O edgeE_I" />
    <route id="edgeE_edgeN" edges="edgeE_O edgeN_I" />
    <route id="edgeE_edgeS" edges="edgeE_O edgeS_I" />
    <route id="edgeE_edgeW" edges="edgeE_O edgeW_I" />
    <route id="edgeE_edgeE" edges="edgeE_O edgeE_I" />
    
   <vType id="vehicleS_0" length="4.259000" accel="3.435000" decel="4.666000" sigma="0.5" minGap="2.383695" maxSpeed="142.174521" guiShape="passenger" />
   <vehicle id="straightS_0" type="vehicleS_0" route="edgeS_edgeN" depart="0" departLane="1" />

   <vType id="vehicleE_1" length="4.276000" accel="3.220000" decel="4.344000" sigma="0.5" minGap="2.383695" maxSpeed="142.174521" guiShape="passenger" />
   <vehicle id="leftE_1" type="vehicleE_1" route="edgeE_edgeS" depart="0" departLane="2" />

   <vType id="vehicleE_2" length="5.080000" accel="2.802000" decel="3.213000" sigma="0.5" minGap="2.383695" maxSpeed="142.174521" guiShape="passenger" />
   <vehicle id="rightE_2" type="vehicleE_2" route="edgeE_edgeN" depart="1" departLane="1" />

   <vType id="vehicleN_3" length="4.494000" accel="2.808000" decel="3.517000" sigma="0.5" minGap="2.383695" maxSpeed="142.174521" guiShape="passenger" />
   <vehicle id="straightN_3" type="vehicleN_3" route="edgeN_edgeS" depart="2" departLane="1" />

   <vType id="vehicleE_4" length="4.374000" accel="2.386000" decel="3.429000" sigma="0.5" minGap="2.383695" maxSpeed="142.174521" guiShape="passenger" />
   <vehicle id="leftE_4" type="vehicleE_4" route="edgeE_edgeS" depart="4" departLane="2" />

   <vType id="vehicleE_5" length="5.032000" accel="3.379000" decel="4.685000" sigma="0.5" minGap="2.383695" maxSpeed="142.174521" guiShape="passenger" />
   <vehicle id="leftE_5" type="vehicleE_5" route="edgeE_edgeS" depart="5" departLane="2" />

   <vType id="vehicleS_6" length="4.156000" accel="2.864000" decel="5.538000" sigma="0.5" minGap="2.383695" maxSpeed="142.174521" guiShape="passenger" />
   <vehicle id="rightS_6" type="vehicleS_6" route="edgeS_edgeE" depart="6" departLane="1" />

   <vType id="vehicleW_7" length="4.336000" accel="2.595000" decel="5.408000" sigma="0.5" minGap="2.383695" maxSpeed="142.174521" guiShape="passenger" />
   <vehicle id="leftW_7" type="vehicleW_7" route="edgeW_edgeN" depart="7" departLane="2" />

   <vType id="vehicleE_8" length="5.403000" accel="3.285000" decel="3.178000" sigma="0.5" minGap="2.383695" maxSpeed="142.174521" guiShape="passenger" />
   <vehicle id="leftE_8" type="vehicleE_8" route="edgeE_edgeS" depart="7" departLane="2" />

   <vType id="vehicleS_9" length="4.063000" accel="3.260000" decel="4.988000" sigma="0.5" minGap="2.383695" maxSpeed="142.174521" guiShape="passenger" />
   <vehicle id="leftS_9" type="vehicleS_9" route="edgeS_edgeW" depart="10" departLane="2" />

   <vType id="vehicleW_10" length="5.171000" accel="3.486000" decel="3.728000" sigma="0.5" minGap="2.383695" maxSpeed="142.174521" guiShape="passenger" />
   <vehicle id="rightW_10" type="vehicleW_10" route="edgeW_edgeS" depart="12" departLane="1" />

   <vType id="vehicleS_11" length="5.378000" accel="2.735000" decel="4.561000" sigma="0.5" minGap="2.383695" maxSpeed="142.174521" guiShape="passenger" />
   <vehicle id="rightS_11" type="vehicleS_11" route="edgeS_edgeE" depart="14" departLane="1" />

   <vType id="vehicleW_12" length="4.806000" accel="3.502000" decel="4.258000" sigma="0.5" minGap="2.383695" maxSpeed="142.174521" guiShape="passenger" />
   <vehicle id="leftW_12" type="vehicleW_12" route="edgeW_edgeN" depart="14" departLane="2" />

   <vType id="vehicleS_13" length="5.576000" accel="3.547000" decel="3.447000" sigma="0.5" minGap="2.383695" maxSpeed="142.174521" guiShape="passenger" />
   <vehicle id="straightS_13" type="vehicleS_13" route="edgeS_edgeN" depart="15" departLane="1" />

   <vType id="vehicleN_14" length="3.993000" accel="3.473000" decel="4.914000" sigma="0.5" minGap="2.383695" maxSpeed="142.174521" guiShape="passenger" />
   <vehicle id="straightN_14" type="vehicleN_14" route="edgeN_edgeS" depart="16" departLane="1" />

   <vType id="vehicleE_15" length="4.922000" accel="3.799000" decel="5.369000" sigma="0.5" minGap="2.383695" maxSpeed="142.174521" guiShape="passenger" />
   <vehicle id="leftE_15" type="vehicleE_15" route="edgeE_edgeS" depart="16" departLane="2" />

   <vType id="vehicleE_16" length="4.831000" accel="3.198000" decel="2.800000" sigma="0.5" minGap="2.383695" maxSpeed="142.174521" guiShape="passenger" />
   <vehicle id="leftE_16" type="vehicleE_16" route="edgeE_edgeS" depart="18" departLane="2" />

   <vType id="vehicleE_17" length="5.030000" accel="2.600000" decel="3.149000" sigma="0.5" minGap="2.383695" maxSpeed="142.174521" guiShape="passenger" />
   <vehicle id="leftE_17" type="vehicleE_17" route="edgeE_edgeS" depart="19" departLane="2" />

   <vType id="vehicleE_18" length="4.486000" accel="2.915000" decel="5.188000" sigma="0.5" minGap="2.383695" maxSpeed="142.174521" guiShape="passenger" />
   <vehicle id="leftE_18" type="vehicleE_18" route="edgeE_edgeS" depart="20" departLane="2" />

   <vType id="vehicleW_19" length="4.460000" accel="3.635000" decel="3.473000" sigma="0.5" minGap="2.383695" maxSpeed="142.174521" guiShape="passenger" />
   <vehicle id="leftW_19" type="vehicleW_19" route="edgeW_edgeN" depart="21" departLane="2" />

   <vType id="vehicleN_20" length="4.673000" accel="3.655000" decel="2.990000" sigma="0.5" minGap="2.383695" maxSpeed="142.174521" guiShape="passenger" />
   <vehicle id="leftN_20" type="vehicleN_20" route="edgeN_edgeE" depart="22" departLane="2" />

   <vType id="vehicleS_21" length="5.318000" accel="3.806000" decel="5.362000" sigma="0.5" minGap="2.383695" maxSpeed="142.174521" guiShape="passenger" />
   <vehicle id="uturnS_21" type="vehicleS_21" route="edgeS_edgeS" depart="22" departLane="2" />

   <vType id="vehicleE_22" length="4.243000" accel="2.899000" decel="2.944000" sigma="0.5" minGap="2.383695" maxSpeed="142.174521" guiShape="passenger" />
   <vehicle id="leftE_22" type="vehicleE_22" route="edgeE_edgeS" depart="22" departLane="2" />

   <vType id="vehicleN_23" length="5.475000" accel="3.512000" decel="3.575000" sigma="0.5" minGap="2.383695" maxSpeed="142.174521" guiShape="passenger" />
   <vehicle id="straightN_23" type="vehicleN_23" route="edgeN_edgeS" depart="23" departLane="2" />

   <vType id="vehicleS_24" length="5.548000" accel="3.183000" decel="4.291000" sigma="0.5" minGap="2.383695" maxSpeed="142.174521" guiShape="passenger" />
   <vehicle id="straightS_24" type="vehicleS_24" route="edgeS_edgeN" depart="23" departLane="2" />

   <vType id="vehicleW_25" length="4.743000" accel="3.620000" decel="3.219000" sigma="0.5" minGap="2.383695" maxSpeed="142.174521" guiShape="passenger" />
   <vehicle id="leftW_25" type="vehicleW_25" route="edgeW_edgeN" depart="23" departLane="2" />

   <vType id="vehicleN_26" length="5.363000" accel="2.903000" decel="5.404000" sigma="0.5" minGap="2.383695" maxSpeed="142.174521" guiShape="passenger" />
   <vehicle id="leftN_26" type="vehicleN_26" route="edgeN_edgeE" depart="24" departLane="2" />

   <vType id="vehicleW_27" length="5.010000" accel="3.161000" decel="3.662000" sigma="0.5" minGap="2.383695" maxSpeed="142.174521" guiShape="passenger" />
   <vehicle id="leftW_27" type="vehicleW_27" route="edgeW_edgeN" depart="24" departLane="2" />

   <vType id="vehicleE_28" length="4.286000" accel="2.890000" decel="4.652000" sigma="0.5" minGap="2.383695" maxSpeed="142.174521" guiShape="passenger" />
   <vehicle id="leftE_28" type="vehicleE_28" route="edgeE_edgeS" depart="24" departLane="2" />

   <vType id="vehicleE_29" length="4.847000" accel="2.418000" decel="4.278000" sigma="0.5" minGap="2.383695" maxSpeed="142.174521" guiShape="passenger" />
   <vehicle id="leftE_29" type="vehicleE_29" route="edgeE_edgeS" depart="25" departLane="2" />

   <vType id="vehicleN_30" length="3.992000" accel="2.648000" decel="3.574000" sigma="0.5" minGap="2.383695" maxSpeed="142.174521" guiShape="passenger" />
   <vehicle id="straightN_30" type="vehicleN_30" route="edgeN_edgeS" depart="26" departLane="2" />

   <vType id="vehicleW_31" length="4.391000" accel="3.318000" decel="5.397000" sigma="0.5" minGap="2.383695" maxSpeed="142.174521" guiShape="passenger" />
   <vehicle id="rightW_31" type="vehicleW_31" route="edgeW_edgeS" depart="27" departLane="1" />

   <vType id="vehicleW_32" length="4.238000" accel="2.806000" decel="4.696000" sigma="0.5" minGap="2.383695" maxSpeed="142.174521" guiShape="passenger" />
   <vehicle id="leftW_32" type="vehicleW_32" route="edgeW_edgeN" depart="28" departLane="2" />

   <vType id="vehicleW_33" length="5.307000" accel="2.329000" decel="3.710000" sigma="0.5" minGap="2.383695" maxSpeed="142.174521" guiShape="passenger" />
   <vehicle id="leftW_33" type="vehicleW_33" route="edgeW_edgeN" depart="29" departLane="2" />

   <vType id="vehicleN_34" length="5.400000" accel="3.702000" decel="4.301000" sigma="0.5" minGap="2.383695" maxSpeed="142.174521" guiShape="passenger" />
   <vehicle id="leftN_34" type="vehicleN_34" route="edgeN_edgeE" depart="31" departLane="2" />

   <vType id="vehicleW_35" length="4.406000" accel="3.694000" decel="4.999000" sigma="0.5" minGap="2.383695" maxSpeed="142.174521" guiShape="passenger" />
   <vehicle id="leftW_35" type="vehicleW_35" route="edgeW_edgeN" depart="31" departLane="2" />

   <vType id="vehicleW_36" length="5.402000" accel="2.907000" decel="4.510000" sigma="0.5" minGap="2.383695" maxSpeed="142.174521" guiShape="passenger" />
   <vehicle id="rightW_36" type="vehicleW_36" route="edgeW_edgeS" depart="32" departLane="1" />

   <vType id="vehicleS_37" length="4.180000" accel="2.917000" decel="3.280000" sigma="0.5" minGap="2.383695" maxSpeed="142.174521" guiShape="passenger" />
   <vehicle id="rightS_37" type="vehicleS_37" route="edgeS_edgeE" depart="33" departLane="2" />

   <vType id="vehicleE_38" length="4.535000" accel="2.320000" decel="4.092000" sigma="0.5" minGap="2.383695" maxSpeed="142.174521" guiShape="passenger" />
   <vehicle id="leftE_38" type="vehicleE_38" route="edgeE_edgeS" depart="34" departLane="2" />

   <vType id="vehicleS_39" length="4.441000" accel="3.639000" decel="5.475000" sigma="0.5" minGap="2.383695" maxSpeed="142.174521" guiShape="passenger" />
   <vehicle id="leftS_39" type="vehicleS_39" route="edgeS_edgeW" depart="36" departLane="2" />

   <vType id="vehicleE_40" length="4.325000" accel="3.186000" decel="5.521000" sigma="0.5" minGap="2.383695" maxSpeed="142.174521" guiShape="passenger" />
   <vehicle id="rightE_40" type="vehicleE_40" route="edgeE_edgeN" depart="37" departLane="1" />

   <vType id="vehicleN_41" length="5.133000" accel="2.759000" decel="4.470000" sigma="0.5" minGap="2.383695" maxSpeed="142.174521" guiShape="passenger" />
   <vehicle id="straightN_41" type="vehicleN_41" route="edgeN_edgeS" depart="38" departLane="1" />

   <vType id="vehicleS_42" length="4.804000" accel="3.407000" decel="4.848000" sigma="0.5" minGap="2.383695" maxSpeed="142.174521" guiShape="passenger" />
   <vehicle id="uturnS_42" type="vehicleS_42" route="edgeS_edgeS" depart="39" departLane="2" />

   <vType id="vehicleN_43" length="4.444000" accel="2.760000" decel="5.144000" sigma="0.5" minGap="2.383695" maxSpeed="142.174521" guiShape="passenger" />
   <vehicle id="straightN_43" type="vehicleN_43" route="edgeN_edgeS" depart="40" departLane="2" />

   <vType id="vehicleW_44" length="4.529000" accel="3.453000" decel="3.265000" sigma="0.5" minGap="2.383695" maxSpeed="142.174521" guiShape="passenger" />
   <vehicle id="leftW_44" type="vehicleW_44" route="edgeW_edgeN" depart="41" departLane="2" />

   <vType id="vehicleW_45" length="4.922000" accel="2.773000" decel="4.011000" sigma="0.5" minGap="2.383695" maxSpeed="142.174521" guiShape="passenger" />
   <vehicle id="rightW_45" type="vehicleW_45" route="edgeW_edgeS" depart="42" departLane="1" />

   <vType id="vehicleE_46" length="4.279000" accel="2.754000" decel="5.028000" sigma="0.5" minGap="2.383695" maxSpeed="142.174521" guiShape="passenger" />
   <vehicle id="uturnE_46" type="vehicleE_46" route="edgeE_edgeE" depart="44" departLane="2" />

   <vType id="vehicleN_47" length="5.574000" accel="3.235000" decel="4.922000" sigma="0.5" minGap="2.383695" maxSpeed="142.174521" guiShape="passenger" />
   <vehicle id="leftN_47" type="vehicleN_47" route="edgeN_edgeE" depart="45" departLane="2" />

   <vType id="vehicleE_48" length="4.728000" accel="2.648000" decel="4.609000" sigma="0.5" minGap="2.383695" maxSpeed="142.174521" guiShape="passenger" />
   <vehicle id="leftE_48" type="vehicleE_48" route="edgeE_edgeS" depart="45" departLane="2" />

   <vType id="vehicleW_49" length="4.677000" accel="3.107000" decel="4.338000" sigma="0.5" minGap="2.383695" maxSpeed="142.174521" guiShape="passenger" />
   <vehicle id="leftW_49" type="vehicleW_49" route="edgeW_edgeN" depart="48" departLane="2" />

   <vType id="vehicleN_50" length="4.343000" accel="2.769000" decel="4.286000" sigma="0.5" minGap="2.383695" maxSpeed="142.174521" guiShape="passenger" />
   <vehicle id="straightN_50" type="vehicleN_50" route="edgeN_edgeS" depart="53" departLane="1" />

   <vType id="vehicleS_51" length="4.138000" accel="2.600000" decel="3.936000" sigma="0.5" minGap="2.383695" maxSpeed="142.174521" guiShape="passenger" />
   <vehicle id="straightS_51" type="vehicleS_51" route="edgeS_edgeN" depart="53" departLane="2" />

   <vType id="vehicleN_52" length="5.176000" accel="3.621000" decel="5.437000" sigma="0.5" minGap="2.383695" maxSpeed="142.174521" guiShape="passenger" />
   <vehicle id="straightN_52" type="vehicleN_52" route="edgeN_edgeS" depart="56" departLane="2" />

   <vType id="vehicleE_53" length="5.372000" accel="2.549000" decel="3.505000" sigma="0.5" minGap="2.383695" maxSpeed="142.174521" guiShape="passenger" />
   <vehicle id="leftE_53" type="vehicleE_53" route="edgeE_edgeS" depart="60" departLane="2" />

   <vType id="vehicleE_54" length="4.806000" accel="3.855000" decel="3.755000" sigma="0.5" minGap="2.383695" maxSpeed="142.174521" guiShape="passenger" />
   <vehicle id="leftE_54" type="vehicleE_54" route="edgeE_edgeS" depart="62" departLane="2" />

   <vType id="vehicleS_55" length="4.092000" accel="3.328000" decel="4.352000" sigma="0.5" minGap="2.383695" maxSpeed="142.174521" guiShape="passenger" />
   <vehicle id="leftS_55" type="vehicleS_55" route="edgeS_edgeW" depart="64" departLane="2" />

   <vType id="vehicleS_56" length="4.874000" accel="3.742000" decel="4.385000" sigma="0.5" minGap="2.383695" maxSpeed="142.174521" guiShape="passenger" />
   <vehicle id="straightS_56" type="vehicleS_56" route="edgeS_edgeN" depart="66" departLane="2" />

   <vType id="vehicleN_57" length="4.958000" accel="2.421000" decel="4.933000" sigma="0.5" minGap="2.383695" maxSpeed="142.174521" guiShape="passenger" />
   <vehicle id="rightN_57" type="vehicleN_57" route="edgeN_edgeW" depart="67" departLane="1" />

   <vType id="vehicleE_58" length="5.017000" accel="2.368000" decel="4.585000" sigma="0.5" minGap="2.383695" maxSpeed="142.174521" guiShape="passenger" />
   <vehicle id="leftE_58" type="vehicleE_58" route="edgeE_edgeS" depart="67" departLane="2" />

   <vType id="vehicleW_59" length="4.972000" accel="3.582000" decel="4.751000" sigma="0.5" minGap="2.383695" maxSpeed="142.174521" guiShape="passenger" />
   <vehicle id="uturnW_59" type="vehicleW_59" route="edgeW_edgeW" depart="68" departLane="2" />

   <vType id="vehicleE_60" length="4.295000" accel="3.001000" decel="4.481000" sigma="0.5" minGap="2.383695" maxSpeed="142.174521" guiShape="passenger" />
   <vehicle id="rightE_60" type="vehicleE_60" route="edgeE_edgeN" depart="71" departLane="1" />

   <vType id="vehicleE_61" length="4.576000" accel="3.145000" decel="3.450000" sigma="0.5" minGap="2.383695" maxSpeed="142.174521" guiShape="passenger" />
   <vehicle id="leftE_61" type="vehicleE_61" route="edgeE_edgeS" depart="74" departLane="2" />

   <vType id="vehicleE_62" length="5.069000" accel="2.747000" decel="4.401000" sigma="0.5" minGap="2.383695" maxSpeed="142.174521" guiShape="passenger" />
   <vehicle id="leftE_62" type="vehicleE_62" route="edgeE_edgeS" depart="75" departLane="2" />

   <vType id="vehicleE_63" length="4.419000" accel="3.445000" decel="5.430000" sigma="0.5" minGap="2.383695" maxSpeed="142.174521" guiShape="passenger" />
   <vehicle id="leftE_63" type="vehicleE_63" route="edgeE_edgeS" depart="77" departLane="2" />

   <vType id="vehicleN_64" length="3.968000" accel="2.725000" decel="5.411000" sigma="0.5" minGap="2.383695" maxSpeed="142.174521" guiShape="passenger" />
   <vehicle id="leftN_64" type="vehicleN_64" route="edgeN_edgeE" depart="81" departLane="2" />

   <vType id="vehicleS_65" length="4.365000" accel="3.023000" decel="3.730000" sigma="0.5" minGap="2.383695" maxSpeed="142.174521" guiShape="passenger" />
   <vehicle id="leftS_65" type="vehicleS_65" route="edgeS_edgeW" depart="81" departLane="2" />

   <vType id="vehicleN_66" length="4.723000" accel="3.180000" decel="4.693000" sigma="0.5" minGap="2.383695" maxSpeed="142.174521" guiShape="passenger" />
   <vehicle id="leftN_66" type="vehicleN_66" route="edgeN_edgeE" depart="82" departLane="2" />

   <vType id="vehicleS_67" length="4.399000" accel="3.846000" decel="3.110000" sigma="0.5" minGap="2.383695" maxSpeed="142.174521" guiShape="passenger" />
   <vehicle id="straightS_67" type="vehicleS_67" route="edgeS_edgeN" depart="82" departLane="2" />

   <vType id="vehicleE_68" length="5.015000" accel="2.509000" decel="3.265000" sigma="0.5" minGap="2.383695" maxSpeed="142.174521" guiShape="passenger" />
   <vehicle id="leftE_68" type="vehicleE_68" route="edgeE_edgeS" depart="85" departLane="2" />

   <vType id="vehicleN_69" length="5.065000" accel="3.009000" decel="2.871000" sigma="0.5" minGap="2.383695" maxSpeed="142.174521" guiShape="passenger" />
   <vehicle id="straightN_69" type="vehicleN_69" route="edgeN_edgeS" depart="86" departLane="2" />

   <vType id="vehicleE_70" length="4.405000" accel="3.454000" decel="4.366000" sigma="0.5" minGap="2.383695" maxSpeed="142.174521" guiShape="passenger" />
   <vehicle id="leftE_70" type="vehicleE_70" route="edgeE_edgeS" depart="89" departLane="2" />

   <vType id="vehicleE_71" length="5.039000" accel="3.633000" decel="4.416000" sigma="0.5" minGap="2.383695" maxSpeed="142.174521" guiShape="passenger" />
   <vehicle id="leftE_71" type="vehicleE_71" route="edgeE_edgeS" depart="92" departLane="2" />

   <vType id="vehicleE_72" length="4.687000" accel="3.299000" decel="5.333000" sigma="0.5" minGap="2.383695" maxSpeed="142.174521" guiShape="passenger" />
   <vehicle id="leftE_72" type="vehicleE_72" route="edgeE_edgeS" depart="93" departLane="2" />

   <vType id="vehicleE_73" length="4.585000" accel="3.050000" decel="4.627000" sigma="0.5" minGap="2.383695" maxSpeed="142.174521" guiShape="passenger" />
   <vehicle id="leftE_73" type="vehicleE_73" route="edgeE_edgeS" depart="95" departLane="2" />

   <vType id="vehicleS_74" length="5.477000" accel="2.958000" decel="4.726000" sigma="0.5" minGap="2.383695" maxSpeed="142.174521" guiShape="passenger" />
   <vehicle id="straightS_74" type="vehicleS_74" route="edgeS_edgeN" depart="100" departLane="1" />

   <vType id="vehicleW_75" length="5.255000" accel="3.392000" decel="3.646000" sigma="0.5" minGap="2.383695" maxSpeed="142.174521" guiShape="passenger" />
   <vehicle id="leftW_75" type="vehicleW_75" route="edgeW_edgeN" depart="100" departLane="2" />

   <vType id="vehicleN_76" length="5.451000" accel="2.995000" decel="3.108000" sigma="0.5" minGap="2.383695" maxSpeed="142.174521" guiShape="passenger" />
   <vehicle id="uturnN_76" type="vehicleN_76" route="edgeN_edgeN" depart="101" departLane="2" />

   <vType id="vehicleW_77" length="4.470000" accel="3.140000" decel="4.295000" sigma="0.5" minGap="2.383695" maxSpeed="142.174521" guiShape="passenger" />
   <vehicle id="leftW_77" type="vehicleW_77" route="edgeW_edgeN" depart="107" departLane="2" />

   <vType id="vehicleS_78" length="4.092000" accel="3.800000" decel="3.705000" sigma="0.5" minGap="2.383695" maxSpeed="142.174521" guiShape="passenger" />
   <vehicle id="uturnS_78" type="vehicleS_78" route="edgeS_edgeS" depart="111" departLane="2" />

   <vType id="vehicleW_79" length="4.046000" accel="3.712000" decel="2.823000" sigma="0.5" minGap="2.383695" maxSpeed="142.174521" guiShape="passenger" />
   <vehicle id="rightW_79" type="vehicleW_79" route="edgeW_edgeS" depart="111" departLane="1" />

   <vType id="vehicleS_80" length="5.549000" accel="2.799000" decel="4.711000" sigma="0.5" minGap="2.383695" maxSpeed="142.174521" guiShape="passenger" />
   <vehicle id="straightS_80" type="vehicleS_80" route="edgeS_edgeN" depart="112" departLane="1" />

   <vType id="vehicleW_81" length="4.964000" accel="3.729000" decel="5.560000" sigma="0.5" minGap="2.383695" maxSpeed="142.174521" guiShape="passenger" />
   <vehicle id="leftW_81" type="vehicleW_81" route="edgeW_edgeN" depart="114" departLane="2" />

   <vType id="vehicleN_82" length="5.382000" accel="2.967000" decel="4.714000" sigma="0.5" minGap="2.383695" maxSpeed="142.174521" guiShape="passenger" />
   <vehicle id="straightN_82" type="vehicleN_82" route="edgeN_edgeS" depart="115" departLane="1" />

   <vType id="vehicleS_83" length="4.381000" accel="2.857000" decel="3.186000" sigma="0.5" minGap="2.383695" maxSpeed="142.174521" guiShape="passenger" />
   <vehicle id="rightS_83" type="vehicleS_83" route="edgeS_edgeE" depart="115" departLane="2" />

   <vType id="vehicleS_84" length="4.945000" accel="2.643000" decel="5.324000" sigma="0.5" minGap="2.383695" maxSpeed="142.174521" guiShape="passenger" />
   <vehicle id="rightS_84" type="vehicleS_84" route="edgeS_edgeE" depart="116" departLane="1" />

   <vType id="vehicleW_85" length="5.580000" accel="2.736000" decel="5.461000" sigma="0.5" minGap="2.383695" maxSpeed="142.174521" guiShape="passenger" />
   <vehicle id="uturnW_85" type="vehicleW_85" route="edgeW_edgeW" depart="118" departLane="2" />

   <vType id="vehicleN_86" length="4.494000" accel="2.731000" decel="4.729000" sigma="0.5" minGap="2.383695" maxSpeed="142.174521" guiShape="passenger" />
   <vehicle id="straightN_86" type="vehicleN_86" route="edgeN_edgeS" depart="120" departLane="1" />

   <vType id="vehicleE_87" length="4.732000" accel="3.702000" decel="3.578000" sigma="0.5" minGap="2.383695" maxSpeed="142.174521" guiShape="passenger" />
   <vehicle id="leftE_87" type="vehicleE_87" route="edgeE_edgeS" depart="121" departLane="2" />

   <vType id="vehicleE_88" length="5.165000" accel="2.539000" decel="3.148000" sigma="0.5" minGap="2.383695" maxSpeed="142.174521" guiShape="passenger" />
   <vehicle id="leftE_88" type="vehicleE_88" route="edgeE_edgeS" depart="125" departLane="2" />

   <vType id="vehicleS_89" length="4.117000" accel="3.802000" decel="5.177000" sigma="0.5" minGap="2.383695" maxSpeed="142.174521" guiShape="passenger" />
   <vehicle id="uturnS_89" type="vehicleS_89" route="edgeS_edgeS" depart="128" departLane="2" />

   <vType id="vehicleN_90" length="4.660000" accel="3.333000" decel="4.654000" sigma="0.5" minGap="2.383695" maxSpeed="142.174521" guiShape="passenger" />
   <vehicle id="straightN_90" type="vehicleN_90" route="edgeN_edgeS" depart="130" departLane="2" />

   <vType id="vehicleE_91" length="3.917000" accel="3.671000" decel="4.345000" sigma="0.5" minGap="2.383695" maxSpeed="142.174521" guiShape="passenger" />
   <vehicle id="leftE_91" type="vehicleE_91" route="edgeE_edgeS" depart="130" departLane="2" />

   <vType id="vehicleS_92" length="3.938000" accel="3.849000" decel="3.104000" sigma="0.5" minGap="2.383695" maxSpeed="142.174521" guiShape="passenger" />
   <vehicle id="leftS_92" type="vehicleS_92" route="edgeS_edgeW" depart="132" departLane="2" />

   <vType id="vehicleE_93" length="5.032000" accel="3.445000" decel="5.417000" sigma="0.5" minGap="2.383695" maxSpeed="142.174521" guiShape="passenger" />
   <vehicle id="leftE_93" type="vehicleE_93" route="edgeE_edgeS" depart="132" departLane="2" />

   <vType id="vehicleS_94" length="4.282000" accel="2.838000" decel="5.514000" sigma="0.5" minGap="2.383695" maxSpeed="142.174521" guiShape="passenger" />
   <vehicle id="straightS_94" type="vehicleS_94" route="edgeS_edgeN" depart="135" departLane="2" />

   <vType id="vehicleW_95" length="5.339000" accel="2.985000" decel="4.627000" sigma="0.5" minGap="2.383695" maxSpeed="142.174521" guiShape="passenger" />
   <vehicle id="leftW_95" type="vehicleW_95" route="edgeW_edgeN" depart="136" departLane="2" />

   <vType id="vehicleE_96" length="5.582000" accel="3.515000" decel="3.352000" sigma="0.5" minGap="2.383695" maxSpeed="142.174521" guiShape="passenger" />
   <vehicle id="leftE_96" type="vehicleE_96" route="edgeE_edgeS" depart="136" departLane="2" />

   <vType id="vehicleE_97" length="4.101000" accel="2.830000" decel="4.977000" sigma="0.5" minGap="2.383695" maxSpeed="142.174521" guiShape="passenger" />
   <vehicle id="rightE_97" type="vehicleE_97" route="edgeE_edgeN" depart="139" departLane="1" />

   <vType id="vehicleN_98" length="4.093000" accel="2.931000" decel="3.097000" sigma="0.5" minGap="2.383695" maxSpeed="142.174521" guiShape="passenger" />
   <vehicle id="straightN_98" type="vehicleN_98" route="edgeN_edgeS" depart="140" departLane="1" />

   <vType id="vehicleN_99" length="5.507000" accel="2.328000" decel="4.963000" sigma="0.5" minGap="2.383695" maxSpeed="142.174521" guiShape="passenger" />
   <vehicle id="straightN_99" type="vehicleN_99" route="edgeN_edgeS" depart="141" departLane="2" />

   <vType id="vehicleE_100" length="4.568000" accel="3.354000" decel="4.146000" sigma="0.5" minGap="2.383695" maxSpeed="142.174521" guiShape="passenger" />
   <vehicle id="leftE_100" type="vehicleE_100" route="edgeE_edgeS" depart="141" departLane="2" />

   <vType id="vehicleN_101" length="4.925000" accel="2.363000" decel="3.547000" sigma="0.5" minGap="2.383695" maxSpeed="142.174521" guiShape="passenger" />
   <vehicle id="leftN_101" type="vehicleN_101" route="edgeN_edgeE" depart="142" departLane="2" />

   <vType id="vehicleE_102" length="5.390000" accel="3.139000" decel="5.192000" sigma="0.5" minGap="2.383695" maxSpeed="142.174521" guiShape="passenger" />
   <vehicle id="leftE_102" type="vehicleE_102" route="edgeE_edgeS" depart="143" departLane="2" />

   <vType id="vehicleS_103" length="5.023000" accel="2.856000" decel="3.206000" sigma="0.5" minGap="2.383695" maxSpeed="142.174521" guiShape="passenger" />
   <vehicle id="straightS_103" type="vehicleS_103" route="edgeS_edgeN" depart="145" departLane="2" />

   <vType id="vehicleW_104" length="4.035000" accel="2.413000" decel="4.839000" sigma="0.5" minGap="2.383695" maxSpeed="142.174521" guiShape="passenger" />
   <vehicle id="rightW_104" type="vehicleW_104" route="edgeW_edgeS" depart="145" departLane="1" />

   <vType id="vehicleE_105" length="5.023000" accel="3.457000" decel="5.199000" sigma="0.5" minGap="2.383695" maxSpeed="142.174521" guiShape="passenger" />
   <vehicle id="leftE_105" type="vehicleE_105" route="edgeE_edgeS" depart="146" departLane="2" />

   <vType id="vehicleE_106" length="4.509000" accel="3.476000" decel="4.380000" sigma="0.5" minGap="2.383695" maxSpeed="142.174521" guiShape="passenger" />
   <vehicle id="rightE_106" type="vehicleE_106" route="edgeE_edgeN" depart="148" departLane="1" />

   <vType id="vehicleS_107" length="5.307000" accel="2.685000" decel="3.283000" sigma="0.5" minGap="2.383695" maxSpeed="142.174521" guiShape="passenger" />
   <vehicle id="uturnS_107" type="vehicleS_107" route="edgeS_edgeS" depart="150" departLane="2" />

   <vType id="vehicleS_108" length="4.852000" accel="2.898000" decel="3.176000" sigma="0.5" minGap="2.383695" maxSpeed="142.174521" guiShape="passenger" />
   <vehicle id="rightS_108" type="vehicleS_108" route="edgeS_edgeE" depart="151" departLane="1" />

   <vType id="vehicleW_109" length="4.524000" accel="2.983000" decel="3.219000" sigma="0.5" minGap="2.383695" maxSpeed="142.174521" guiShape="passenger" />
   <vehicle id="leftW_109" type="vehicleW_109" route="edgeW_edgeN" depart="151" departLane="2" />
