<routes>
   <personFlow id="pRegN" begin="0" end="3000" personsPerHour="57.019774">
        <walk edges="edgeN_O edgeS_I" speed="1.222384"/>
    </personFlow>
   <personFlow id="pRegS" begin="0" end="3000" personsPerHour="362.017042">
        <walk edges="edgeS_O edgeN_I" speed="2.225138"/>
    </personFlow>
   <personFlow id="pRegW" begin="0" end="3000" personsPerHour="713.184330">
        <walk edges="edgeW_O edgeE_I" speed="0.994747"/>
    </personFlow>
   <personFlow id="pRegE" begin="0" end="3000" personsPerHour="471.824171">
        <walk edges="edgeE_O edgeW_I" speed="1.322001"/>
    </personFlow>
   <personFlow id="pOppN" begin="0" end="3000" personsPerHour="981.061532" departPos="400.000000">
        <walk edges="edgeN_I edgeS_O" speed="1.035765"/>
    </personFlow>
   <personFlow id="pOppS" begin="0" end="3000" personsPerHour="355.467532" departPos="500.000000">
        <walk edges="edgeS_I edgeN_O" speed="1.944187"/>
    </personFlow>
   <personFlow id="pOppW" begin="0" end="3000" personsPerHour="315.659056" departPos="600.000000">
        <walk edges="edgeW_I edgeE_O" speed="1.923757"/>
    </personFlow>
   <personFlow id="pOppE" begin="0" end="3000" personsPerHour="274.736425" departPos="500.000000">
        <walk edges="edgeE_I edgeW_O" speed="1.927595"/>
    </personFlow>

    <route id="edgeN_edgeN" edges="edgeN_O edgeN_I" />
    <route id="edgeN_edgeS" edges="edgeN_O edgeS_I" />
    <route id="edgeN_edgeW" edges="edgeN_O edgeW_I" />
    <route id="edgeN_edgeE" edges="edgeN_O edgeE_I" />
    <route id="edgeS_edgeN" edges="edgeS_O edgeN_I" />
    <route id="edgeS_edgeS" edges="edgeS_O edgeS_I" />
    <route id="edgeS_edgeW" edges="edgeS_O edgeW_I" />
    <route id="edgeS_edgeE" edges="edgeS_O edgeE_I" />
    <route id="edgeW_edgeN" edges="edgeW_O edgeN_I" />
    <route id="edgeW_edgeS" edges="edgeW_O edgeS_I" />
    <route id="edgeW_edgeW" edges="edgeW_O edgeW_I" />
    <route id="edgeW_edgeE" edges="edgeW_O edgeE_I" />
    <route id="edgeE_edgeN" edges="edgeE_O edgeN_I" />
    <route id="edgeE_edgeS" edges="edgeE_O edgeS_I" />
    <route id="edgeE_edgeW" edges="edgeE_O edgeW_I" />
    <route id="edgeE_edgeE" edges="edgeE_O edgeE_I" />
    
   <vType id="vehicleS_0" length="4.281000" accel="3.395000" decel="5.419000" sigma="0.5" minGap="2.343941" maxSpeed="129.154161" guiShape="passenger" />
   <vehicle id="straightS_0" type="vehicleS_0" route="edgeS_edgeN" depart="0" departLane="1" />

   <vType id="vehicleE_1" length="4.298000" accel="3.147000" decel="5.014000" sigma="0.5" minGap="2.343941" maxSpeed="129.154161" guiShape="passenger" />
   <vehicle id="straightE_1" type="vehicleE_1" route="edgeE_edgeW" depart="0" departLane="5" />

   <vType id="vehicleN_2" length="5.316000" accel="2.049000" decel="5.872000" sigma="0.5" minGap="2.343941" maxSpeed="129.154161" guiShape="passenger" />
   <vehicle id="straightN_2" type="vehicleN_2" route="edgeN_edgeS" depart="1" departLane="4" />

   <vType id="vehicleS_3" length="5.576000" accel="2.658000" decel="3.370000" sigma="0.5" minGap="2.343941" maxSpeed="129.154161" guiShape="passenger" />
   <vehicle id="straightS_3" type="vehicleS_3" route="edgeS_edgeN" depart="1" departLane="1" />

   <vType id="vehicleE_4" length="3.964000" accel="2.884000" decel="3.483000" sigma="0.5" minGap="2.343941" maxSpeed="129.154161" guiShape="passenger" />
   <vehicle id="straightE_4" type="vehicleE_4" route="edgeE_edgeW" depart="1" departLane="5" />

   <vType id="vehicleN_5" length="4.996000" accel="3.669000" decel="4.313000" sigma="0.5" minGap="2.343941" maxSpeed="129.154161" guiShape="passenger" />
   <vehicle id="straightN_5" type="vehicleN_5" route="edgeN_edgeS" depart="2" departLane="2" />

   <vType id="vehicleW_6" length="4.398000" accel="2.185000" decel="3.861000" sigma="0.5" minGap="2.343941" maxSpeed="129.154161" guiShape="passenger" />
   <vehicle id="straightW_6" type="vehicleW_6" route="edgeW_edgeE" depart="2" departLane="2" />

   <vType id="vehicleE_7" length="5.359000" accel="2.337000" decel="4.291000" sigma="0.5" minGap="2.343941" maxSpeed="129.154161" guiShape="passenger" />
   <vehicle id="straightE_7" type="vehicleE_7" route="edgeE_edgeW" depart="2" departLane="4" />

   <vType id="vehicleW_8" length="4.830000" accel="2.489000" decel="4.666000" sigma="0.5" minGap="2.343941" maxSpeed="129.154161" guiShape="passenger" />
   <vehicle id="rightW_8" type="vehicleW_8" route="edgeW_edgeS" depart="3" departLane="2" />

   <vType id="vehicleS_9" length="5.375000" accel="3.468000" decel="3.848000" sigma="0.5" minGap="2.343941" maxSpeed="129.154161" guiShape="passenger" />
   <vehicle id="straightS_9" type="vehicleS_9" route="edgeS_edgeN" depart="4" departLane="1" />

   <vType id="vehicleN_10" length="4.888000" accel="3.361000" decel="3.791000" sigma="0.5" minGap="2.343941" maxSpeed="129.154161" guiShape="passenger" />
   <vehicle id="rightN_10" type="vehicleN_10" route="edgeN_edgeW" depart="5" departLane="1" />

   <vType id="vehicleS_11" length="4.697000" accel="2.526000" decel="3.910000" sigma="0.5" minGap="2.343941" maxSpeed="129.154161" guiShape="passenger" />
   <vehicle id="rightS_11" type="vehicleS_11" route="edgeS_edgeE" depart="5" departLane="1" />

   <vType id="vehicleS_12" length="4.131000" accel="2.947000" decel="5.696000" sigma="0.5" minGap="2.343941" maxSpeed="129.154161" guiShape="passenger" />
   <vehicle id="uturnS_12" type="vehicleS_12" route="edgeS_edgeS" depart="6" departLane="5" />

   <vType id="vehicleE_13" length="5.088000" accel="3.137000" decel="4.395000" sigma="0.5" minGap="2.343941" maxSpeed="129.154161" guiShape="passenger" />
   <vehicle id="straightE_13" type="vehicleE_13" route="edgeE_edgeW" depart="6" departLane="5" />

   <vType id="vehicleE_14" length="5.090000" accel="3.027000" decel="3.981000" sigma="0.5" minGap="2.343941" maxSpeed="129.154161" guiShape="passenger" />
   <vehicle id="rightE_14" type="vehicleE_14" route="edgeE_edgeN" depart="7" departLane="2" />

   <vType id="vehicleN_15" length="4.688000" accel="3.795000" decel="6.117000" sigma="0.5" minGap="2.343941" maxSpeed="129.154161" guiShape="passenger" />
   <vehicle id="straightN_15" type="vehicleN_15" route="edgeN_edgeS" depart="8" departLane="3" />

   <vType id="vehicleN_16" length="5.372000" accel="2.973000" decel="3.743000" sigma="0.5" minGap="2.343941" maxSpeed="129.154161" guiShape="passenger" />
   <vehicle id="straightN_16" type="vehicleN_16" route="edgeN_edgeS" depart="9" departLane="3" />

   <vType id="vehicleS_17" length="3.921000" accel="3.750000" decel="6.127000" sigma="0.5" minGap="2.343941" maxSpeed="129.154161" guiShape="passenger" />
   <vehicle id="straightS_17" type="vehicleS_17" route="edgeS_edgeN" depart="10" departLane="3" />

   <vType id="vehicleW_18" length="4.888000" accel="2.183000" decel="5.612000" sigma="0.5" minGap="2.343941" maxSpeed="129.154161" guiShape="passenger" />
   <vehicle id="straightW_18" type="vehicleW_18" route="edgeW_edgeE" depart="10" departLane="2" />

   <vType id="vehicleS_19" length="5.558000" accel="2.342000" decel="4.896000" sigma="0.5" minGap="2.343941" maxSpeed="129.154161" guiShape="passenger" />
   <vehicle id="straightS_19" type="vehicleS_19" route="edgeS_edgeN" depart="11" departLane="4" />

   <vType id="vehicleS_20" length="4.684000" accel="2.494000" decel="3.269000" sigma="0.5" minGap="2.343941" maxSpeed="129.154161" guiShape="passenger" />
   <vehicle id="rightS_20" type="vehicleS_20" route="edgeS_edgeE" depart="13" departLane="1" />

   <vType id="vehicleE_21" length="4.012000" accel="3.201000" decel="3.848000" sigma="0.5" minGap="2.343941" maxSpeed="129.154161" guiShape="passenger" />
   <vehicle id="straightE_21" type="vehicleE_21" route="edgeE_edgeW" depart="13" departLane="2" />

   <vType id="vehicleS_22" length="5.068000" accel="2.432000" decel="3.509000" sigma="0.5" minGap="2.343941" maxSpeed="129.154161" guiShape="passenger" />
   <vehicle id="straightS_22" type="vehicleS_22" route="edgeS_edgeN" depart="14" departLane="4" />

   <vType id="vehicleW_23" length="4.605000" accel="2.211000" decel="5.357000" sigma="0.5" minGap="2.343941" maxSpeed="129.154161" guiShape="passenger" />
   <vehicle id="straightW_23" type="vehicleW_23" route="edgeW_edgeE" depart="14" departLane="4" />

   <vType id="vehicleN_24" length="5.075000" accel="3.851000" decel="3.390000" sigma="0.5" minGap="2.343941" maxSpeed="129.154161" guiShape="passenger" />
   <vehicle id="straightN_24" type="vehicleN_24" route="edgeN_edgeS" depart="15" departLane="4" />

   <vType id="vehicleE_25" length="4.833000" accel="2.296000" decel="3.689000" sigma="0.5" minGap="2.343941" maxSpeed="129.154161" guiShape="passenger" />
   <vehicle id="straightE_25" type="vehicleE_25" route="edgeE_edgeW" depart="15" departLane="5" />

   <vType id="vehicleN_26" length="4.669000" accel="3.625000" decel="4.975000" sigma="0.5" minGap="2.343941" maxSpeed="129.154161" guiShape="passenger" />
   <vehicle id="rightN_26" type="vehicleN_26" route="edgeN_edgeW" depart="16" departLane="1" />

   <vType id="vehicleE_27" length="5.217000" accel="2.473000" decel="4.471000" sigma="0.5" minGap="2.343941" maxSpeed="129.154161" guiShape="passenger" />
   <vehicle id="straightE_27" type="vehicleE_27" route="edgeE_edgeW" depart="16" departLane="5" />

   <vType id="vehicleN_28" length="3.990000" accel="2.736000" decel="6.501000" sigma="0.5" minGap="2.343941" maxSpeed="129.154161" guiShape="passenger" />
   <vehicle id="straightN_28" type="vehicleN_28" route="edgeN_edgeS" depart="17" departLane="3" />

   <vType id="vehicleE_29" length="5.176000" accel="3.481000" decel="5.367000" sigma="0.5" minGap="2.343941" maxSpeed="129.154161" guiShape="passenger" />
   <vehicle id="rightE_29" type="vehicleE_29" route="edgeE_edgeN" depart="17" departLane="2" />

   <vType id="vehicleN_30" length="5.597000" accel="3.105000" decel="4.947000" sigma="0.5" minGap="2.343941" maxSpeed="129.154161" guiShape="passenger" />
   <vehicle id="straightN_30" type="vehicleN_30" route="edgeN_edgeS" depart="18" departLane="3" />

   <vType id="vehicleS_31" length="4.774000" accel="3.609000" decel="3.597000" sigma="0.5" minGap="2.343941" maxSpeed="129.154161" guiShape="passenger" />
   <vehicle id="straightS_31" type="vehicleS_31" route="edgeS_edgeN" depart="18" departLane="1" />

   <vType id="vehicleE_32" length="5.408000" accel="2.782000" decel="6.348000" sigma="0.5" minGap="2.343941" maxSpeed="129.154161" guiShape="passenger" />
   <vehicle id="straightE_32" type="vehicleE_32" route="edgeE_edgeW" depart="18" departLane="3" />

   <vType id="vehicleS_33" length="5.047000" accel="3.079000" decel="4.155000" sigma="0.5" minGap="2.343941" maxSpeed="129.154161" guiShape="passenger" />
   <vehicle id="straightS_33" type="vehicleS_33" route="edgeS_edgeN" depart="19" departLane="3" />

   <vType id="vehicleW_34" length="4.308000" accel="2.767000" decel="5.401000" sigma="0.5" minGap="2.343941" maxSpeed="129.154161" guiShape="passenger" />
   <vehicle id="rightW_34" type="vehicleW_34" route="edgeW_edgeS" depart="19" departLane="2" />

   <vType id="vehicleW_35" length="4.881000" accel="2.222000" decel="4.931000" sigma="0.5" minGap="2.343941" maxSpeed="129.154161" guiShape="passenger" />
   <vehicle id="rightW_35" type="vehicleW_35" route="edgeW_edgeS" depart="20" departLane="2" />

   <vType id="vehicleE_36" length="4.008000" accel="2.488000" decel="4.045000" sigma="0.5" minGap="2.343941" maxSpeed="129.154161" guiShape="passenger" />
   <vehicle id="straightE_36" type="vehicleE_36" route="edgeE_edgeW" depart="20" departLane="5" />

   <vType id="vehicleS_37" length="4.415000" accel="3.260000" decel="6.339000" sigma="0.5" minGap="2.343941" maxSpeed="129.154161" guiShape="passenger" />
   <vehicle id="rightS_37" type="vehicleS_37" route="edgeS_edgeE" depart="22" departLane="1" />

   <vType id="vehicleW_38" length="5.197000" accel="2.324000" decel="4.033000" sigma="0.5" minGap="2.343941" maxSpeed="129.154161" guiShape="passenger" />
   <vehicle id="rightW_38" type="vehicleW_38" route="edgeW_edgeS" depart="22" departLane="1" />

   <vType id="vehicleN_39" length="4.353000" accel="2.938000" decel="6.221000" sigma="0.5" minGap="2.343941" maxSpeed="129.154161" guiShape="passenger" />
   <vehicle id="straightN_39" type="vehicleN_39" route="edgeN_edgeS" depart="23" departLane="1" />

   <vType id="vehicleS_40" length="4.375000" accel="2.044000" decel="5.750000" sigma="0.5" minGap="2.343941" maxSpeed="129.154161" guiShape="passenger" />
   <vehicle id="straightS_40" type="vehicleS_40" route="edgeS_edgeN" depart="23" departLane="3" />

   <vType id="vehicleW_41" length="5.132000" accel="3.071000" decel="3.437000" sigma="0.5" minGap="2.343941" maxSpeed="129.154161" guiShape="passenger" />
   <vehicle id="straightW_41" type="vehicleW_41" route="edgeW_edgeE" depart="23" departLane="3" />

   <vType id="vehicleW_42" length="4.431000" accel="3.694000" decel="5.838000" sigma="0.5" minGap="2.343941" maxSpeed="129.154161" guiShape="passenger" />
   <vehicle id="straightW_42" type="vehicleW_42" route="edgeW_edgeE" depart="24" departLane="2" />

   <vType id="vehicleN_43" length="4.068000" accel="3.475000" decel="6.146000" sigma="0.5" minGap="2.343941" maxSpeed="129.154161" guiShape="passenger" />
   <vehicle id="straightN_43" type="vehicleN_43" route="edgeN_edgeS" depart="25" departLane="4" />

   <vType id="vehicleN_44" length="5.299000" accel="2.364000" decel="4.491000" sigma="0.5" minGap="2.343941" maxSpeed="129.154161" guiShape="passenger" />
   <vehicle id="straightN_44" type="vehicleN_44" route="edgeN_edgeS" depart="26" departLane="2" />

   <vType id="vehicleE_45" length="4.078000" accel="3.645000" decel="6.057000" sigma="0.5" minGap="2.343941" maxSpeed="129.154161" guiShape="passenger" />
   <vehicle id="rightE_45" type="vehicleE_45" route="edgeE_edgeN" depart="27" departLane="1" />

   <vType id="vehicleN_46" length="4.504000" accel="3.550000" decel="6.101000" sigma="0.5" minGap="2.343941" maxSpeed="129.154161" guiShape="passenger" />
   <vehicle id="rightN_46" type="vehicleN_46" route="edgeN_edgeW" depart="28" departLane="1" />

   <vType id="vehicleS_47" length="4.466000" accel="3.630000" decel="6.437000" sigma="0.5" minGap="2.343941" maxSpeed="129.154161" guiShape="passenger" />
   <vehicle id="straightS_47" type="vehicleS_47" route="edgeS_edgeN" depart="28" departLane="3" />

   <vType id="vehicleE_48" length="4.348000" accel="3.107000" decel="6.495000" sigma="0.5" minGap="2.343941" maxSpeed="129.154161" guiShape="passenger" />
   <vehicle id="rightE_48" type="vehicleE_48" route="edgeE_edgeN" depart="29" departLane="1" />

   <vType id="vehicleN_49" length="5.173000" accel="2.616000" decel="5.171000" sigma="0.5" minGap="2.343941" maxSpeed="129.154161" guiShape="passenger" />
   <vehicle id="straightN_49" type="vehicleN_49" route="edgeN_edgeS" depart="30" departLane="1" />

   <vType id="vehicleS_50" length="4.336000" accel="3.344000" decel="3.051000" sigma="0.5" minGap="2.343941" maxSpeed="129.154161" guiShape="passenger" />
   <vehicle id="straightS_50" type="vehicleS_50" route="edgeS_edgeN" depart="30" departLane="2" />

   <vType id="vehicleE_51" length="4.470000" accel="2.616000" decel="6.020000" sigma="0.5" minGap="2.343941" maxSpeed="129.154161" guiShape="passenger" />
   <vehicle id="rightE_51" type="vehicleE_51" route="edgeE_edgeN" depart="30" departLane="2" />

   <vType id="vehicleS_52" length="4.556000" accel="3.416000" decel="3.655000" sigma="0.5" minGap="2.343941" maxSpeed="129.154161" guiShape="passenger" />
   <vehicle id="straightS_52" type="vehicleS_52" route="edgeS_edgeN" depart="32" departLane="3" />

   <vType id="vehicleN_53" length="5.274000" accel="3.155000" decel="4.175000" sigma="0.5" minGap="2.343941" maxSpeed="129.154161" guiShape="passenger" />
   <vehicle id="straightN_53" type="vehicleN_53" route="edgeN_edgeS" depart="33" departLane="4" />

   <vType id="vehicleS_54" length="4.722000" accel="3.698000" decel="5.837000" sigma="0.5" minGap="2.343941" maxSpeed="129.154161" guiShape="passenger" />
   <vehicle id="straightS_54" type="vehicleS_54" route="edgeS_edgeN" depart="33" departLane="2" />

   <vType id="vehicleE_55" length="4.980000" accel="2.210000" decel="6.384000" sigma="0.5" minGap="2.343941" maxSpeed="129.154161" guiShape="passenger" />
   <vehicle id="rightE_55" type="vehicleE_55" route="edgeE_edgeN" depart="33" departLane="1" />

   <vType id="vehicleS_56" length="3.930000" accel="2.489000" decel="4.712000" sigma="0.5" minGap="2.343941" maxSpeed="129.154161" guiShape="passenger" />
   <vehicle id="straightS_56" type="vehicleS_56" route="edgeS_edgeN" depart="34" departLane="1" />

   <vType id="vehicleN_57" length="5.462000" accel="3.623000" decel="6.151000" sigma="0.5" minGap="2.343941" maxSpeed="129.154161" guiShape="passenger" />
   <vehicle id="straightN_57" type="vehicleN_57" route="edgeN_edgeS" depart="36" departLane="4" />

   <vType id="vehicleS_58" length="5.115000" accel="2.894000" decel="5.000000" sigma="0.5" minGap="2.343941" maxSpeed="129.154161" guiShape="passenger" />
   <vehicle id="straightS_58" type="vehicleS_58" route="edgeS_edgeN" depart="36" departLane="1" />

   <vType id="vehicleS_59" length="5.199000" accel="2.912000" decel="3.954000" sigma="0.5" minGap="2.343941" maxSpeed="129.154161" guiShape="passenger" />
   <vehicle id="rightS_59" type="vehicleS_59" route="edgeS_edgeE" depart="39" departLane="1" />

   <vType id="vehicleE_60" length="4.742000" accel="2.478000" decel="4.588000" sigma="0.5" minGap="2.343941" maxSpeed="129.154161" guiShape="passenger" />
   <vehicle id="rightE_60" type="vehicleE_60" route="edgeE_edgeN" depart="39" departLane="2" />

   <vType id="vehicleN_61" length="5.463000" accel="2.186000" decel="3.574000" sigma="0.5" minGap="2.343941" maxSpeed="129.154161" guiShape="passenger" />
   <vehicle id="straightN_61" type="vehicleN_61" route="edgeN_edgeS" depart="40" departLane="4" />

   <vType id="vehicleE_62" length="4.845000" accel="2.804000" decel="3.770000" sigma="0.5" minGap="2.343941" maxSpeed="129.154161" guiShape="passenger" />
   <vehicle id="straightE_62" type="vehicleE_62" route="edgeE_edgeW" depart="40" departLane="5" />

   <vType id="vehicleN_63" length="5.557000" accel="2.073000" decel="6.134000" sigma="0.5" minGap="2.343941" maxSpeed="129.154161" guiShape="passenger" />
   <vehicle id="straightN_63" type="vehicleN_63" route="edgeN_edgeS" depart="41" departLane="4" />

   <vType id="vehicleS_64" length="4.414000" accel="2.756000" decel="6.173000" sigma="0.5" minGap="2.343941" maxSpeed="129.154161" guiShape="passenger" />
   <vehicle id="rightS_64" type="vehicleS_64" route="edgeS_edgeE" depart="41" departLane="1" />

   <vType id="vehicleE_65" length="4.573000" accel="3.270000" decel="5.845000" sigma="0.5" minGap="2.343941" maxSpeed="129.154161" guiShape="passenger" />
   <vehicle id="straightE_65" type="vehicleE_65" route="edgeE_edgeW" depart="42" departLane="3" />

   <vType id="vehicleE_66" length="5.417000" accel="2.372000" decel="3.957000" sigma="0.5" minGap="2.343941" maxSpeed="129.154161" guiShape="passenger" />
   <vehicle id="straightE_66" type="vehicleE_66" route="edgeE_edgeW" depart="44" departLane="4" />

   <vType id="vehicleN_67" length="5.231000" accel="2.736000" decel="5.683000" sigma="0.5" minGap="2.343941" maxSpeed="129.154161" guiShape="passenger" />
   <vehicle id="straightN_67" type="vehicleN_67" route="edgeN_edgeS" depart="45" departLane="4" />

   <vType id="vehicleS_68" length="3.921000" accel="3.032000" decel="6.552000" sigma="0.5" minGap="2.343941" maxSpeed="129.154161" guiShape="passenger" />
   <vehicle id="straightS_68" type="vehicleS_68" route="edgeS_edgeN" depart="45" departLane="3" />

   <vType id="vehicleW_69" length="5.577000" accel="2.112000" decel="3.154000" sigma="0.5" minGap="2.343941" maxSpeed="129.154161" guiShape="passenger" />
   <vehicle id="straightW_69" type="vehicleW_69" route="edgeW_edgeE" depart="45" departLane="3" />

   <vType id="vehicleE_70" length="4.156000" accel="2.270000" decel="5.393000" sigma="0.5" minGap="2.343941" maxSpeed="129.154161" guiShape="passenger" />
   <vehicle id="straightE_70" type="vehicleE_70" route="edgeE_edgeW" depart="45" departLane="3" />

   <vType id="vehicleN_71" length="4.538000" accel="3.154000" decel="6.426000" sigma="0.5" minGap="2.343941" maxSpeed="129.154161" guiShape="passenger" />
   <vehicle id="straightN_71" type="vehicleN_71" route="edgeN_edgeS" depart="46" departLane="1" />

   <vType id="vehicleW_72" length="4.908000" accel="3.749000" decel="5.065000" sigma="0.5" minGap="2.343941" maxSpeed="129.154161" guiShape="passenger" />
   <vehicle id="straightW_72" type="vehicleW_72" route="edgeW_edgeE" depart="46" departLane="5" />

   <vType id="vehicleS_73" length="4.994000" accel="2.225000" decel="5.755000" sigma="0.5" minGap="2.343941" maxSpeed="129.154161" guiShape="passenger" />
   <vehicle id="straightS_73" type="vehicleS_73" route="edgeS_edgeN" depart="47" departLane="1" />

   <vType id="vehicleN_74" length="5.055000" accel="2.165000" decel="5.316000" sigma="0.5" minGap="2.343941" maxSpeed="129.154161" guiShape="passenger" />
   <vehicle id="straightN_74" type="vehicleN_74" route="edgeN_edgeS" depart="48" departLane="1" />

   <vType id="vehicleE_75" length="5.009000" accel="3.565000" decel="5.526000" sigma="0.5" minGap="2.343941" maxSpeed="129.154161" guiShape="passenger" />
   <vehicle id="rightE_75" type="vehicleE_75" route="edgeE_edgeN" depart="48" departLane="2" />

   <vType id="vehicleN_76" length="5.035000" accel="3.173000" decel="6.271000" sigma="0.5" minGap="2.343941" maxSpeed="129.154161" guiShape="passenger" />
   <vehicle id="straightN_76" type="vehicleN_76" route="edgeN_edgeS" depart="49" departLane="4" />

   <vType id="vehicleS_77" length="4.933000" accel="2.631000" decel="3.906000" sigma="0.5" minGap="2.343941" maxSpeed="129.154161" guiShape="passenger" />
   <vehicle id="rightS_77" type="vehicleS_77" route="edgeS_edgeE" depart="49" departLane="1" />

   <vType id="vehicleW_78" length="5.212000" accel="3.088000" decel="5.389000" sigma="0.5" minGap="2.343941" maxSpeed="129.154161" guiShape="passenger" />
   <vehicle id="straightW_78" type="vehicleW_78" route="edgeW_edgeE" depart="49" departLane="4" />

   <vType id="vehicleE_79" length="4.208000" accel="2.428000" decel="5.844000" sigma="0.5" minGap="2.343941" maxSpeed="129.154161" guiShape="passenger" />
   <vehicle id="rightE_79" type="vehicleE_79" route="edgeE_edgeN" depart="49" departLane="2" />

   <vType id="vehicleN_80" length="5.440000" accel="3.062000" decel="4.857000" sigma="0.5" minGap="2.343941" maxSpeed="129.154161" guiShape="passenger" />
   <vehicle id="straightN_80" type="vehicleN_80" route="edgeN_edgeS" depart="50" departLane="2" />

   <vType id="vehicleS_81" length="4.749000" accel="3.435000" decel="5.467000" sigma="0.5" minGap="2.343941" maxSpeed="129.154161" guiShape="passenger" />
   <vehicle id="straightS_81" type="vehicleS_81" route="edgeS_edgeN" depart="50" departLane="4" />

   <vType id="vehicleE_82" length="4.601000" accel="2.486000" decel="5.374000" sigma="0.5" minGap="2.343941" maxSpeed="129.154161" guiShape="passenger" />
   <vehicle id="straightE_82" type="vehicleE_82" route="edgeE_edgeW" depart="50" departLane="4" />

   <vType id="vehicleS_83" length="5.204000" accel="2.647000" decel="5.510000" sigma="0.5" minGap="2.343941" maxSpeed="129.154161" guiShape="passenger" />
   <vehicle id="straightS_83" type="vehicleS_83" route="edgeS_edgeN" depart="51" departLane="3" />

   <vType id="vehicleE_84" length="4.444000" accel="3.407000" decel="6.380000" sigma="0.5" minGap="2.343941" maxSpeed="129.154161" guiShape="passenger" />
   <vehicle id="rightE_84" type="vehicleE_84" route="edgeE_edgeN" depart="51" departLane="1" />

   <vType id="vehicleN_85" length="4.375000" accel="3.124000" decel="5.712000" sigma="0.5" minGap="2.343941" maxSpeed="129.154161" guiShape="passenger" />
   <vehicle id="straightN_85" type="vehicleN_85" route="edgeN_edgeS" depart="52" departLane="3" />

   <vType id="vehicleE_86" length="4.420000" accel="3.342000" decel="3.489000" sigma="0.5" minGap="2.343941" maxSpeed="129.154161" guiShape="passenger" />
   <vehicle id="straightE_86" type="vehicleE_86" route="edgeE_edgeW" depart="52" departLane="2" />

   <vType id="vehicleS_87" length="4.110000" accel="3.638000" decel="4.767000" sigma="0.5" minGap="2.343941" maxSpeed="129.154161" guiShape="passenger" />
   <vehicle id="straightS_87" type="vehicleS_87" route="edgeS_edgeN" depart="53" departLane="1" />

   <vType id="vehicleN_88" length="3.978000" accel="3.772000" decel="4.721000" sigma="0.5" minGap="2.343941" maxSpeed="129.154161" guiShape="passenger" />
   <vehicle id="straightN_88" type="vehicleN_88" route="edgeN_edgeS" depart="54" departLane="1" />

   <vType id="vehicleS_89" length="4.998000" accel="2.136000" decel="3.568000" sigma="0.5" minGap="2.343941" maxSpeed="129.154161" guiShape="passenger" />
   <vehicle id="straightS_89" type="vehicleS_89" route="edgeS_edgeN" depart="54" departLane="3" />

   <vType id="vehicleW_90" length="4.872000" accel="2.804000" decel="5.136000" sigma="0.5" minGap="2.343941" maxSpeed="129.154161" guiShape="passenger" />
   <vehicle id="straightW_90" type="vehicleW_90" route="edgeW_edgeE" depart="54" departLane="3" />

   <vType id="vehicleN_91" length="4.412000" accel="3.122000" decel="4.549000" sigma="0.5" minGap="2.343941" maxSpeed="129.154161" guiShape="passenger" />
   <vehicle id="rightN_91" type="vehicleN_91" route="edgeN_edgeW" depart="55" departLane="1" />

   <vType id="vehicleN_92" length="5.053000" accel="2.327000" decel="3.655000" sigma="0.5" minGap="2.343941" maxSpeed="129.154161" guiShape="passenger" />
   <vehicle id="straightN_92" type="vehicleN_92" route="edgeN_edgeS" depart="56" departLane="1" />

   <vType id="vehicleS_93" length="5.104000" accel="2.903000" decel="3.159000" sigma="0.5" minGap="2.343941" maxSpeed="129.154161" guiShape="passenger" />
   <vehicle id="straightS_93" type="vehicleS_93" route="edgeS_edgeN" depart="56" departLane="3" />

   <vType id="vehicleN_94" length="5.518000" accel="3.489000" decel="5.238000" sigma="0.5" minGap="2.343941" maxSpeed="129.154161" guiShape="passenger" />
   <vehicle id="straightN_94" type="vehicleN_94" route="edgeN_edgeS" depart="57" departLane="2" />

   <vType id="vehicleS_95" length="5.030000" accel="3.712000" decel="5.945000" sigma="0.5" minGap="2.343941" maxSpeed="129.154161" guiShape="passenger" />
   <vehicle id="straightS_95" type="vehicleS_95" route="edgeS_edgeN" depart="57" departLane="1" />

   <vType id="vehicleW_96" length="4.937000" accel="3.556000" decel="6.276000" sigma="0.5" minGap="2.343941" maxSpeed="129.154161" guiShape="passenger" />
   <vehicle id="rightW_96" type="vehicleW_96" route="edgeW_edgeS" depart="57" departLane="2" />

   <vType id="vehicleE_97" length="5.122000" accel="3.775000" decel="4.800000" sigma="0.5" minGap="2.343941" maxSpeed="129.154161" guiShape="passenger" />
   <vehicle id="rightE_97" type="vehicleE_97" route="edgeE_edgeN" depart="57" departLane="2" />

   <vType id="vehicleN_98" length="5.457000" accel="3.391000" decel="5.163000" sigma="0.5" minGap="2.343941" maxSpeed="129.154161" guiShape="passenger" />
   <vehicle id="straightN_98" type="vehicleN_98" route="edgeN_edgeS" depart="58" departLane="1" />

   <vType id="vehicleS_99" length="5.362000" accel="3.098000" decel="6.380000" sigma="0.5" minGap="2.343941" maxSpeed="129.154161" guiShape="passenger" />
   <vehicle id="rightS_99" type="vehicleS_99" route="edgeS_edgeE" depart="58" departLane="1" />

   <vType id="vehicleN_100" length="4.667000" accel="2.550000" decel="6.542000" sigma="0.5" minGap="2.343941" maxSpeed="129.154161" guiShape="passenger" />
   <vehicle id="straightN_100" type="vehicleN_100" route="edgeN_edgeS" depart="59" departLane="4" />

   <vType id="vehicleE_101" length="4.475000" accel="3.272000" decel="6.054000" sigma="0.5" minGap="2.343941" maxSpeed="129.154161" guiShape="passenger" />
   <vehicle id="straightE_101" type="vehicleE_101" route="edgeE_edgeW" depart="59" departLane="4" />

   <vType id="vehicleN_102" length="5.056000" accel="2.775000" decel="5.713000" sigma="0.5" minGap="2.343941" maxSpeed="129.154161" guiShape="passenger" />
   <vehicle id="straightN_102" type="vehicleN_102" route="edgeN_edgeS" depart="60" departLane="1" />

   <vType id="vehicleS_103" length="4.457000" accel="3.825000" decel="4.463000" sigma="0.5" minGap="2.343941" maxSpeed="129.154161" guiShape="passenger" />
   <vehicle id="straightS_103" type="vehicleS_103" route="edgeS_edgeN" depart="60" departLane="1" />

   <vType id="vehicleN_104" length="4.525000" accel="3.432000" decel="5.239000" sigma="0.5" minGap="2.343941" maxSpeed="129.154161" guiShape="passenger" />
   <vehicle id="straightN_104" type="vehicleN_104" route="edgeN_edgeS" depart="61" departLane="1" />

   <vType id="vehicleS_105" length="5.524000" accel="2.845000" decel="5.494000" sigma="0.5" minGap="2.343941" maxSpeed="129.154161" guiShape="passenger" />
   <vehicle id="straightS_105" type="vehicleS_105" route="edgeS_edgeN" depart="61" departLane="1" />

   <vType id="vehicleW_106" length="5.298000" accel="3.346000" decel="4.135000" sigma="0.5" minGap="2.343941" maxSpeed="129.154161" guiShape="passenger" />
   <vehicle id="rightW_106" type="vehicleW_106" route="edgeW_edgeS" depart="61" departLane="1" />

   <vType id="vehicleN_107" length="5.498000" accel="2.888000" decel="3.457000" sigma="0.5" minGap="2.343941" maxSpeed="129.154161" guiShape="passenger" />
   <vehicle id="uturnN_107" type="vehicleN_107" route="edgeN_edgeN" depart="62" departLane="5" />

   <vType id="vehicleS_108" length="5.617000" accel="2.487000" decel="4.979000" sigma="0.5" minGap="2.343941" maxSpeed="129.154161" guiShape="passenger" />
   <vehicle id="rightS_108" type="vehicleS_108" route="edgeS_edgeE" depart="63" departLane="1" />
