<?xml version="1.0" encoding="UTF-8"?>

<!-- generated on 2021-10-23 05:40:18 by Eclipse SUMO netconvert Version 1.10.0
<configuration xmlns:xsi="http://www.w3.org/2001/XMLSchema-instance" xsi:noNamespaceSchemaLocation="http://sumo.dlr.de/xsd/netconvertConfiguration.xsd">

    <input>
        <node-files value="data5/cross.nod.xml"/>
        <edge-files value="data5/cross.edg.xml"/>
        <connection-files value="data5/cross.con.xml"/>
    </input>

    <output>
        <output-file value="data5/cross.net.xml"/>
    </output>

    <junctions>
        <no-turnarounds.except-turnlane value="true"/>
    </junctions>

    <report>
        <aggregate-warnings value="5"/>
    </report>

</configuration>
-->

<net version="1.9" junctionCornerDetail="5" limitTurnSpeed="5.50" xmlns:xsi="http://www.w3.org/2001/XMLSchema-instance" xsi:noNamespaceSchemaLocation="http://sumo.dlr.de/xsd/net_file.xsd">

    <location netOffset="600.00,300.00" convBoundary="0.00,0.00,1400.00,1300.00" origBoundary="-600.00,-300.00,800.00,1000.00" projParameter="!"/>

    <edge id=":juncE_0" function="internal">
        <lane id=":juncE_0_0" index="0" disallow="pedestrian" speed="3.65" length="4.67" shape="1400.00,298.40 1401.20,299.20 1401.60,300.00 1401.20,300.80 1400.00,301.60"/>
    </edge>
    <edge id=":juncE_w0" function="walkingarea">
        <lane id=":juncE_w0_0" index="0" allow="pedestrian" speed="1.00" length="16.00" width="3.20" shape="1400.00,306.40 1400.00,309.60 1400.00,290.40 1400.00,293.60"/>
    </edge>
    <edge id=":juncMain_0" function="internal">
        <lane id=":juncMain_0_0" index="0" disallow="pedestrian" speed="6.86" length="5.34" shape="595.20,311.10 594.81,308.34 593.62,306.38 593.40,306.24"/>
        <lane id=":juncMain_0_1" index="1" disallow="pedestrian" speed="7.64" length="7.67" shape="595.20,311.10 594.81,306.94 593.62,303.98 593.40,303.77"/>
    </edge>
    <edge id=":juncMain_2" function="internal">
        <lane id=":juncMain_2_0" index="0" disallow="pedestrian" speed="21.04" length="22.20" shape="595.20,311.10 595.20,288.90"/>
    </edge>
    <edge id=":juncMain_3" function="internal">
        <lane id=":juncMain_3_0" index="0" disallow="pedestrian" speed="7.64" length="4.32" shape="598.40,311.10 597.81,308.34 596.80,307.23"/>
        <lane id=":juncMain_3_1" index="1" disallow="pedestrian" speed="8.29" length="6.15" shape="598.40,311.10 597.81,306.94 596.80,305.27"/>
    </edge>
    <edge id=":juncMain_5" function="internal">
        <lane id=":juncMain_5_0" index="0" disallow="pedestrian" speed="21.04" length="22.20" shape="598.40,311.10 598.40,288.90"/>
    </edge>
    <edge id=":juncMain_6" function="internal">
        <lane id=":juncMain_6_0" index="0" disallow="pedestrian" speed="9.51" length="7.18" shape="598.40,311.10 599.19,305.54 600.00,304.20"/>
    </edge>
    <edge id=":juncMain_7" function="internal">
        <lane id=":juncMain_7_0" index="0" disallow="pedestrian" speed="3.65" length="2.34" shape="598.40,311.10 599.20,309.90 600.00,309.50"/>
    </edge>
    <edge id=":juncMain_22" function="internal">
        <lane id=":juncMain_22_0" index="0" disallow="pedestrian" speed="6.86" length="4.82" shape="593.40,306.24 591.66,305.19 588.90,304.80"/>
    </edge>
    <edge id=":juncMain_23" function="internal">
        <lane id=":juncMain_23_0" index="0" disallow="pedestrian" speed="7.64" length="5.17" shape="593.40,303.77 591.66,302.19 588.90,301.60"/>
    </edge>
    <edge id=":juncMain_24" function="internal">
        <lane id=":juncMain_24_0" index="0" disallow="pedestrian" speed="7.64" length="8.53" shape="596.80,307.23 596.02,306.38 593.06,305.19 588.90,304.80"/>
    </edge>
    <edge id=":juncMain_25" function="internal">
        <lane id=":juncMain_25_0" index="0" disallow="pedestrian" speed="8.29" length="9.17" shape="596.80,305.27 596.02,303.98 593.06,302.19 588.90,301.60"/>
    </edge>
    <edge id=":juncMain_26" function="internal">
        <lane id=":juncMain_26_0" index="0" disallow="pedestrian" speed="9.51" length="13.30" shape="600.00,304.20 601.57,301.57 605.54,299.19 611.10,298.40"/>
    </edge>
    <edge id=":juncMain_27" function="internal">
        <lane id=":juncMain_27_0" index="0" disallow="pedestrian" speed="3.65" length="2.34" shape="600.00,309.50 600.80,309.90 601.60,311.10"/>
    </edge>
    <edge id=":juncMain_8" function="internal">
        <lane id=":juncMain_8_0" index="0" disallow="pedestrian" speed="6.86" length="5.34" shape="611.10,304.80 608.34,305.19 606.38,306.38 606.24,306.60"/>
    </edge>
    <edge id=":juncMain_9" function="internal">
        <lane id=":juncMain_9_0" index="0" disallow="pedestrian" speed="9.51" length="15.94" shape="611.10,301.60 605.54,300.81 601.58,298.43 599.19,294.46 599.04,293.40"/>
    </edge>
    <edge id=":juncMain_10" function="internal">
        <lane id=":juncMain_10_0" index="0" disallow="pedestrian" speed="3.65" length="4.67" shape="611.10,301.60 609.90,300.80 609.50,300.00 609.90,299.20 611.10,298.40"/>
    </edge>
    <edge id=":juncMain_28" function="internal">
        <lane id=":juncMain_28_0" index="0" disallow="pedestrian" speed="6.86" length="4.82" shape="606.24,306.60 605.19,308.34 604.80,311.10"/>
    </edge>
    <edge id=":juncMain_29" function="internal">
        <lane id=":juncMain_29_0" index="0" disallow="pedestrian" speed="9.51" length="4.55" shape="599.04,293.40 598.40,288.90"/>
    </edge>
    <edge id=":juncMain_11" function="internal">
        <lane id=":juncMain_11_0" index="0" disallow="pedestrian" speed="6.86" length="5.34" shape="604.80,288.90 605.19,291.66 606.38,293.62 606.60,293.76"/>
        <lane id=":juncMain_11_1" index="1" disallow="pedestrian" speed="7.64" length="7.67" shape="604.80,288.90 605.19,293.06 606.38,296.02 606.60,296.23"/>
    </edge>
    <edge id=":juncMain_13" function="internal">
        <lane id=":juncMain_13_0" index="0" disallow="pedestrian" speed="21.04" length="22.20" shape="604.80,288.90 604.80,311.10"/>
    </edge>
    <edge id=":juncMain_14" function="internal">
        <lane id=":juncMain_14_0" index="0" disallow="pedestrian" speed="7.64" length="4.32" shape="601.60,288.90 602.19,291.66 603.20,292.77"/>
        <lane id=":juncMain_14_1" index="1" disallow="pedestrian" speed="8.29" length="6.15" shape="601.60,288.90 602.19,293.06 603.20,294.73"/>
    </edge>
    <edge id=":juncMain_16" function="internal">
        <lane id=":juncMain_16_0" index="0" disallow="pedestrian" speed="21.04" length="22.20" shape="601.60,288.90 601.60,311.10"/>
    </edge>
    <edge id=":juncMain_17" function="internal">
        <lane id=":juncMain_17_0" index="0" disallow="pedestrian" speed="9.51" length="7.18" shape="601.60,288.90 600.81,294.46 600.00,295.80"/>
    </edge>
    <edge id=":juncMain_18" function="internal">
        <lane id=":juncMain_18_0" index="0" disallow="pedestrian" speed="3.65" length="2.34" shape="601.60,288.90 600.80,290.10 600.00,290.50"/>
    </edge>
    <edge id=":juncMain_30" function="internal">
        <lane id=":juncMain_30_0" index="0" disallow="pedestrian" speed="6.86" length="4.82" shape="606.60,293.76 608.34,294.81 611.10,295.20"/>
    </edge>
    <edge id=":juncMain_31" function="internal">
        <lane id=":juncMain_31_0" index="0" disallow="pedestrian" speed="7.64" length="5.17" shape="606.60,296.23 608.34,297.81 611.10,298.40"/>
    </edge>
    <edge id=":juncMain_32" function="internal">
        <lane id=":juncMain_32_0" index="0" disallow="pedestrian" speed="7.64" length="8.53" shape="603.20,292.77 603.98,293.62 606.94,294.81 611.10,295.20"/>
    </edge>
    <edge id=":juncMain_33" function="internal">
        <lane id=":juncMain_33_0" index="0" disallow="pedestrian" speed="8.29" length="9.17" shape="603.20,294.73 603.98,296.02 606.94,297.81 611.10,298.40"/>
    </edge>
    <edge id=":juncMain_34" function="internal">
        <lane id=":juncMain_34_0" index="0" disallow="pedestrian" speed="9.51" length="13.30" shape="600.00,295.80 598.43,298.43 594.46,300.81 588.90,301.60"/>
    </edge>
    <edge id=":juncMain_35" function="internal">
        <lane id=":juncMain_35_0" index="0" disallow="pedestrian" speed="3.65" length="2.34" shape="600.00,290.50 599.20,290.10 598.40,288.90"/>
    </edge>
    <edge id=":juncMain_19" function="internal">
        <lane id=":juncMain_19_0" index="0" disallow="pedestrian" speed="6.86" length="5.34" shape="588.90,295.20 591.66,294.81 593.62,293.62 593.76,293.40"/>
    </edge>
    <edge id=":juncMain_20" function="internal">
        <lane id=":juncMain_20_0" index="0" disallow="pedestrian" speed="9.51" length="15.94" shape="588.90,298.40 594.46,299.19 598.42,301.57 600.81,305.54 600.96,306.60"/>
    </edge>
    <edge id=":juncMain_21" function="internal">
        <lane id=":juncMain_21_0" index="0" disallow="pedestrian" speed="3.65" length="4.67" shape="588.90,298.40 590.10,299.20 590.50,300.00 590.10,300.80 588.90,301.60"/>
    </edge>
    <edge id=":juncMain_36" function="internal">
        <lane id=":juncMain_36_0" index="0" disallow="pedestrian" speed="6.86" length="4.82" shape="593.76,293.40 594.81,291.66 595.20,288.90"/>
    </edge>
    <edge id=":juncMain_37" function="internal">
        <lane id=":juncMain_37_0" index="0" disallow="pedestrian" speed="9.51" length="4.55" shape="600.96,306.60 601.60,311.10"/>
    </edge>
    <edge id=":juncMain_c0" function="crossing" crossingEdges="edgeN_I edgeN_O">
        <lane id=":juncMain_c0_0" index="0" allow="pedestrian" speed="1.00" length="12.80" width="4.50" shape="606.40,308.85 593.60,308.85"/>
    </edge>
    <edge id=":juncMain_c1" function="crossing" crossingEdges="edgeE_I edgeE_O">
        <lane id=":juncMain_c1_0" index="0" allow="pedestrian" speed="1.00" length="12.80" width="4.50" shape="608.85,293.60 608.85,306.40"/>
    </edge>
    <edge id=":juncMain_c2" function="crossing" crossingEdges="edgeS_I edgeS_O">
        <lane id=":juncMain_c2_0" index="0" allow="pedestrian" speed="1.00" length="12.80" width="4.50" shape="593.60,291.15 606.40,291.15"/>
    </edge>
    <edge id=":juncMain_c3" function="crossing" crossingEdges="edgeW_I edgeW_O">
        <lane id=":juncMain_c3_0" index="0" allow="pedestrian" speed="1.00" length="12.80" width="4.50" shape="591.15,306.40 591.15,293.60"/>
    </edge>
    <edge id=":juncMain_w0" function="walkingarea">
        <lane id=":juncMain_w0_0" index="0" allow="pedestrian" speed="1.00" length="3.82" width="4.50" shape="588.90,306.40 588.90,309.60 590.40,311.10 593.60,311.10 593.47,309.66 593.08,308.49 592.43,307.58 591.51,306.92 590.34,306.53"/>
    </edge>
    <edge id=":juncMain_w1" function="walkingarea">
        <lane id=":juncMain_w1_0" index="0" allow="pedestrian" speed="1.00" length="3.82" width="4.50" shape="606.40,311.10 609.60,311.10 611.10,309.60 611.10,306.40 609.66,306.53 608.49,306.92 607.58,307.58 606.92,308.49 606.53,309.66"/>
    </edge>
    <edge id=":juncMain_w2" function="walkingarea">
        <lane id=":juncMain_w2_0" index="0" allow="pedestrian" speed="1.00" length="3.82" width="4.50" shape="611.10,293.60 611.10,290.40 609.60,288.90 606.40,288.90 606.53,290.34 606.92,291.51 607.57,292.42 608.49,293.08 609.66,293.47"/>
    </edge>
    <edge id=":juncMain_w3" function="walkingarea">
        <lane id=":juncMain_w3_0" index="0" allow="pedestrian" speed="1.00" length="3.82" width="4.50" shape="593.60,288.90 590.40,288.90 588.90,290.40 588.90,293.60 590.34,293.47 591.51,293.08 592.42,292.42 593.08,291.51 593.47,290.34"/>
    </edge>
    <edge id=":juncN_0" function="internal">
        <lane id=":juncN_0_0" index="0" disallow="pedestrian" speed="3.65" length="4.67" shape="601.60,1300.00 600.80,1301.20 600.00,1301.60 599.20,1301.20 598.40,1300.00"/>
    </edge>
    <edge id=":juncN_w0" function="walkingarea">
        <lane id=":juncN_w0_0" index="0" allow="pedestrian" speed="1.00" length="16.00" width="3.20" shape="593.60,1300.00 590.40,1300.00 609.60,1300.00 606.40,1300.00"/>
    </edge>
    <edge id=":juncS_0" function="internal">
        <lane id=":juncS_0_0" index="0" disallow="pedestrian" speed="3.65" length="4.67" shape="598.40,0.00 599.20,-1.20 600.00,-1.60 600.80,-1.20 601.60,0.00"/>
    </edge>
    <edge id=":juncS_w0" function="walkingarea">
        <lane id=":juncS_w0_0" index="0" allow="pedestrian" speed="1.00" length="16.00" width="3.20" shape="606.40,0.00 609.60,0.00 590.40,0.00 593.60,0.00"/>
    </edge>
    <edge id=":juncW_0" function="internal">
        <lane id=":juncW_0_0" index="0" disallow="pedestrian" speed="3.65" length="4.67" shape="0.00,301.60 -1.20,300.80 -1.60,300.00 -1.20,299.20 0.00,298.40"/>
    </edge>
    <edge id=":juncW_w0" function="walkingarea">
        <lane id=":juncW_w0_0" index="0" allow="pedestrian" speed="1.00" length="16.00" width="3.20" shape="0.00,293.60 0.00,290.40 0.00,309.60 0.00,306.40"/>
    </edge>

    <edge id="edgeE_I" from="juncMain" to="juncE" priority="46">
        <lane id="edgeE_I_0" index="0" allow="pedestrian" speed="21.74" length="788.90" shape="611.10,292.00 1400.00,292.00"/>
        <lane id="edgeE_I_1" index="1" disallow="pedestrian" speed="21.74" length="788.90" shape="611.10,295.20 1400.00,295.20"/>
        <lane id="edgeE_I_2" index="2" disallow="pedestrian" speed="21.74" length="788.90" shape="611.10,298.40 1400.00,298.40"/>
    </edge>
    <edge id="edgeE_O" from="juncE" to="juncMain" priority="78">
        <lane id="edgeE_O_0" index="0" allow="pedestrian" speed="19.39" length="788.90" shape="1400.00,308.00 611.10,308.00"/>
        <lane id="edgeE_O_1" index="1" disallow="pedestrian" speed="19.39" length="788.90" shape="1400.00,304.80 611.10,304.80"/>
        <lane id="edgeE_O_2" index="2" disallow="pedestrian" speed="19.39" length="788.90" shape="1400.00,301.60 611.10,301.60"/>
    </edge>
    <edge id="edgeN_I" from="juncMain" to="juncN" priority="46">
        <lane id="edgeN_I_0" index="0" allow="pedestrian" speed="20.84" length="988.90" shape="608.00,311.10 608.00,1300.00"/>
        <lane id="edgeN_I_1" index="1" disallow="pedestrian" speed="20.84" length="988.90" shape="604.80,311.10 604.80,1300.00"/>
        <lane id="edgeN_I_2" index="2" disallow="pedestrian" speed="20.84" length="988.90" shape="601.60,311.10 601.60,1300.00"/>
    </edge>
    <edge id="edgeN_O" from="juncN" to="juncMain" priority="78">
        <lane id="edgeN_O_0" index="0" allow="pedestrian" speed="21.24" length="988.90" shape="592.00,1300.00 592.00,311.10"/>
        <lane id="edgeN_O_1" index="1" disallow="pedestrian" speed="21.24" length="988.90" shape="595.20,1300.00 595.20,311.10"/>
        <lane id="edgeN_O_2" index="2" disallow="pedestrian" speed="21.24" length="988.90" shape="598.40,1300.00 598.40,311.10"/>
    </edge>
    <edge id="edgeS_I" from="juncMain" to="juncS" priority="46">
        <lane id="edgeS_I_0" index="0" allow="pedestrian" speed="20.84" length="288.90" shape="592.00,288.90 592.00,0.00"/>
        <lane id="edgeS_I_1" index="1" disallow="pedestrian" speed="20.84" length="288.90" shape="595.20,288.90 595.20,0.00"/>
        <lane id="edgeS_I_2" index="2" disallow="pedestrian" speed="20.84" length="288.90" shape="598.40,288.90 598.40,0.00"/>
    </edge>
    <edge id="edgeS_O" from="juncS" to="juncMain" priority="78">
        <lane id="edgeS_O_0" index="0" allow="pedestrian" speed="21.24" length="288.90" shape="608.00,0.00 608.00,288.90"/>
        <lane id="edgeS_O_1" index="1" disallow="pedestrian" speed="21.24" length="288.90" shape="604.80,0.00 604.80,288.90"/>
        <lane id="edgeS_O_2" index="2" disallow="pedestrian" speed="21.24" length="288.90" shape="601.60,0.00 601.60,288.90"/>
    </edge>
    <edge id="edgeW_I" from="juncMain" to="juncW" priority="46">
        <lane id="edgeW_I_0" index="0" allow="pedestrian" speed="21.74" length="588.90" shape="588.90,308.00 0.00,308.00"/>
        <lane id="edgeW_I_1" index="1" disallow="pedestrian" speed="21.74" length="588.90" shape="588.90,304.80 0.00,304.80"/>
        <lane id="edgeW_I_2" index="2" disallow="pedestrian" speed="21.74" length="588.90" shape="588.90,301.60 0.00,301.60"/>
    </edge>
    <edge id="edgeW_O" from="juncW" to="juncMain" priority="78">
        <lane id="edgeW_O_0" index="0" allow="pedestrian" speed="19.39" length="588.90" shape="0.00,292.00 588.90,292.00"/>
        <lane id="edgeW_O_1" index="1" disallow="pedestrian" speed="19.39" length="588.90" shape="0.00,295.20 588.90,295.20"/>
        <lane id="edgeW_O_2" index="2" disallow="pedestrian" speed="19.39" length="588.90" shape="0.00,298.40 588.90,298.40"/>
    </edge>

    <tlLogic id="juncMain" type="static" programID="0" offset="0">
        <phase duration="20" state="ggGggGggrrrggGggGggrrrrGrG"/>
        <phase duration="5"  state="ggGggGggrrrggGggGggrrrrrrr"/>
        <phase duration="5"  state="yyyyyyyyrrryyyyyyyyrrrrrrr"/>
        <phase duration="20" state="rrrrrrrrrrrrrrrrrrrggGGGGr"/>
        <phase duration="5"  state="rrrrrrrrrrrrrrrrrrrggGrrrr"/>
        <phase duration="5"  state="rrrrrrrrrrrrrrrrrrryyyrrrr"/>
        <phase duration="20" state="rrrrrrrrggGrrrrrrrrrrrGrGG"/>
        <phase duration="5"  state="rrrrrrrrggGrrrrrrrrrrrrrrr"/>
        <phase duration="5"  state="rrrrrrrryyyrrrrrrrrrrrrrrr"/>
    </tlLogic>

    <junction id="juncE" type="priority" x="1400.00" y="300.00" incLanes="edgeE_I_0 edgeE_I_1 edgeE_I_2" intLanes=":juncE_0_0" shape="1400.00,300.00 1400.00,290.40 1400.00,300.00">
        <request index="0" response="0" foes="0" cont="0"/>
    </junction>
    <junction id="juncMain" type="traffic_light" x="600.00" y="300.00" incLanes="edgeN_O_0 edgeN_O_1 edgeN_O_2 edgeE_O_0 edgeE_O_1 edgeE_O_2 edgeS_O_0 edgeS_O_1 edgeS_O_2 edgeW_O_0 edgeW_O_1 edgeW_O_2 :juncMain_w1_0 :juncMain_w2_0 :juncMain_w3_0 :juncMain_w0_0" intLanes=":juncMain_22_0 :juncMain_23_0 :juncMain_2_0 :juncMain_24_0 :juncMain_25_0 :juncMain_5_0 :juncMain_26_0 :juncMain_27_0 :juncMain_28_0 :juncMain_29_0 :juncMain_10_0 :juncMain_30_0 :juncMain_31_0 :juncMain_13_0 :juncMain_32_0 :juncMain_33_0 :juncMain_16_0 :juncMain_34_0 :juncMain_35_0 :juncMain_36_0 :juncMain_37_0 :juncMain_21_0 :juncMain_c0_0 :juncMain_c1_0 :juncMain_c2_0 :juncMain_c3_0" shape="590.40,311.10 609.60,311.10 609.77,310.27 609.98,309.98 610.27,309.77 610.64,309.64 611.10,309.60 611.10,290.40 610.27,290.23 609.98,290.02 609.77,289.73 609.64,289.36 609.60,288.90 590.40,288.90 590.23,289.73 590.02,290.02 589.73,290.23 589.36,290.36 588.90,290.40 588.90,309.60 589.73,309.77 590.02,309.98 590.23,310.27 590.36,310.64">
        <request index="0"  response="10010000000000000000000000" foes="10011000100000000000001000" cont="1"/>
        <request index="1"  response="10010000000000000000000000" foes="10011000100000000000010000" cont="1"/>
        <request index="2"  response="01010110000000001000000000" foes="01010111100000001000011000" cont="0"/>
        <request index="3"  response="10010000000000000000000101" foes="10011000100000000000000101" cont="1"/>
        <request index="4"  response="10010000000000000000000110" foes="10011000100000000000000110" cont="1"/>
        <request index="5"  response="01010110000000001000000000" foes="01010111100000001000000000" cont="0"/>
        <request index="6"  response="00110100011111101000000000" foes="00110100011111111000000000" cont="1"/>
        <request index="7"  response="00010100010010000000000000" foes="00010100010010000000000000" cont="1"/>
        <request index="8"  response="00110000010010000000000000" foes="00110000010010000000000000" cont="1"/>
        <request index="9"  response="01100000110010000001100100" foes="01100001110010000001100100" cont="1"/>
        <request index="10" response="00100000001101100001000000" foes="00100000001101100001000000" cont="0"/>
        <request index="11" response="01100000000000000000000000" foes="01100000000100010001000000" cont="1"/>
        <request index="12" response="01100000000000000000000000" foes="01100000001000010001000000" cont="1"/>
        <request index="13" response="01010100000000001100000000" foes="01010100001100001111000000" cont="0"/>
        <request index="14" response="01100000000010100000000000" foes="01100000000010110001000000" cont="1"/>
        <request index="15" response="01100000000011000000000000" foes="01100000000011010001000000" cont="1"/>
        <request index="16" response="01010100000000001100000000" foes="01010100000000001111000000" cont="0"/>
        <request index="17" response="11000100000000001000111111" foes="11001100000000001000111111" cont="1"/>
        <request index="18" response="01000000000000001000100100" foes="01000000000000001000100100" cont="1"/>
        <request index="19" response="11000000000000000000100100" foes="11000000000000000000100100" cont="1"/>
        <request index="20" response="10010000110010000001100100" foes="10010000110010000011100100" cont="1"/>
        <request index="21" response="10000000100000000000011011" foes="10000000100000000000011011" cont="0"/>
        <request index="22" response="00000000000000000000000000" foes="00000100010010000111111111" cont="0"/>
        <request index="23" response="00000000000000000000000000" foes="00000000001101111101000000" cont="0"/>
        <request index="24" response="00000000000000000000000000" foes="00000011111111101000100100" cont="0"/>
        <request index="25" response="00000000000000000000000000" foes="00001110100000000000011011" cont="0"/>
    </junction>
    <junction id="juncN" type="priority" x="600.00" y="1300.00" incLanes="edgeN_I_0 edgeN_I_1 edgeN_I_2" intLanes=":juncN_0_0" shape="600.00,1300.00 609.60,1300.00 600.00,1300.00">
        <request index="0" response="0" foes="0" cont="0"/>
    </junction>
    <junction id="juncS" type="priority" x="600.00" y="0.00" incLanes="edgeS_I_0 edgeS_I_1 edgeS_I_2" intLanes=":juncS_0_0" shape="600.00,0.00 590.40,0.00 600.00,0.00">
        <request index="0" response="0" foes="0" cont="0"/>
    </junction>
    <junction id="juncW" type="priority" x="0.00" y="300.00" incLanes="edgeW_I_0 edgeW_I_1 edgeW_I_2" intLanes=":juncW_0_0" shape="0.00,300.00 0.00,309.60 0.00,300.00">
        <request index="0" response="0" foes="0" cont="0"/>
    </junction>

    <junction id=":juncMain_22_0" type="internal" x="593.40" y="306.24" incLanes=":juncMain_0_0" intLanes=":juncMain_3_0 :juncMain_17_0 :juncMain_21_0 :juncMain_c0_0 :juncMain_c3_0"/>
    <junction id=":juncMain_23_0" type="internal" x="593.40" y="303.77" incLanes=":juncMain_0_1" intLanes=":juncMain_3_1 :juncMain_17_0 :juncMain_21_0 :juncMain_c0_0 :juncMain_c3_0"/>
    <junction id=":juncMain_24_0" type="internal" x="596.80" y="307.23" incLanes=":juncMain_3_0 edgeN_O_1" intLanes=":juncMain_0_0 :juncMain_2_0 :juncMain_17_0 :juncMain_21_0 :juncMain_c0_0 :juncMain_c3_0"/>
    <junction id=":juncMain_25_0" type="internal" x="596.80" y="305.27" incLanes=":juncMain_3_1 edgeN_O_1" intLanes=":juncMain_0_1 :juncMain_2_0 :juncMain_17_0 :juncMain_21_0 :juncMain_c0_0 :juncMain_c3_0"/>
    <junction id=":juncMain_26_0" type="internal" x="600.00" y="304.20" incLanes=":juncMain_6_0 edgeS_O_1 edgeS_O_2" intLanes=":juncMain_9_0 :juncMain_10_0 :juncMain_11_0 :juncMain_11_1 :juncMain_13_0 :juncMain_14_0 :juncMain_14_1 :juncMain_16_0 :juncMain_20_0 :juncMain_c0_0 :juncMain_c1_0"/>
    <junction id=":juncMain_27_0" type="internal" x="600.00" y="309.50" incLanes=":juncMain_7_0 edgeE_O_1 edgeS_O_1 edgeS_O_2 edgeW_O_2" intLanes=":juncMain_8_0 :juncMain_13_0 :juncMain_16_0 :juncMain_20_0 :juncMain_c0_0 :juncMain_c0_0"/>
    <junction id=":juncMain_28_0" type="internal" x="606.24" y="306.60" incLanes=":juncMain_8_0" intLanes=":juncMain_7_0 :juncMain_13_0 :juncMain_16_0 :juncMain_20_0 :juncMain_c0_0 :juncMain_c1_0"/>
    <junction id=":juncMain_29_0" type="internal" x="599.04" y="293.40" incLanes=":juncMain_9_0" intLanes=":juncMain_2_0 :juncMain_5_0 :juncMain_6_0 :juncMain_13_0 :juncMain_16_0 :juncMain_17_0 :juncMain_18_0 :juncMain_19_0 :juncMain_c1_0 :juncMain_c2_0"/>
    <junction id=":juncMain_30_0" type="internal" x="606.60" y="293.76" incLanes=":juncMain_11_0" intLanes=":juncMain_6_0 :juncMain_10_0 :juncMain_14_0 :juncMain_c1_0 :juncMain_c2_0"/>
    <junction id=":juncMain_31_0" type="internal" x="606.60" y="296.23" incLanes=":juncMain_11_1" intLanes=":juncMain_6_0 :juncMain_10_0 :juncMain_14_1 :juncMain_c1_0 :juncMain_c2_0"/>
    <junction id=":juncMain_32_0" type="internal" x="603.20" y="292.77" incLanes=":juncMain_14_0 edgeS_O_1" intLanes=":juncMain_6_0 :juncMain_10_0 :juncMain_11_0 :juncMain_13_0 :juncMain_c1_0 :juncMain_c2_0"/>
    <junction id=":juncMain_33_0" type="internal" x="603.20" y="294.73" incLanes=":juncMain_14_1 edgeS_O_1" intLanes=":juncMain_6_0 :juncMain_10_0 :juncMain_11_1 :juncMain_13_0 :juncMain_c1_0 :juncMain_c2_0"/>
    <junction id=":juncMain_34_0" type="internal" x="600.00" y="295.80" incLanes=":juncMain_17_0 edgeN_O_1 edgeN_O_2" intLanes=":juncMain_0_0 :juncMain_0_1 :juncMain_2_0 :juncMain_3_0 :juncMain_3_1 :juncMain_5_0 :juncMain_9_0 :juncMain_20_0 :juncMain_21_0 :juncMain_c2_0 :juncMain_c3_0"/>
    <junction id=":juncMain_35_0" type="internal" x="600.00" y="290.50" incLanes=":juncMain_18_0 edgeE_O_2 edgeN_O_1 edgeN_O_2 edgeW_O_1" intLanes=":juncMain_2_0 :juncMain_5_0 :juncMain_9_0 :juncMain_19_0 :juncMain_c2_0 :juncMain_c2_0"/>
    <junction id=":juncMain_36_0" type="internal" x="593.76" y="293.40" incLanes=":juncMain_19_0" intLanes=":juncMain_2_0 :juncMain_5_0 :juncMain_9_0 :juncMain_18_0 :juncMain_c2_0 :juncMain_c3_0"/>
    <junction id=":juncMain_37_0" type="internal" x="600.96" y="306.60" incLanes=":juncMain_20_0" intLanes=":juncMain_2_0 :juncMain_5_0 :juncMain_6_0 :juncMain_7_0 :juncMain_8_0 :juncMain_13_0 :juncMain_16_0 :juncMain_17_0 :juncMain_c0_0 :juncMain_c3_0"/>

    <connection from="edgeE_I" to="edgeE_O" fromLane="2" toLane="2" via=":juncE_0_0" dir="t" state="M"/>
    <connection from="edgeE_O" to="edgeN_I" fromLane="1" toLane="1" via=":juncMain_8_0" tl="juncMain" linkIndex="8" dir="r" state="o"/>
    <connection from="edgeE_O" to="edgeS_I" fromLane="2" toLane="2" via=":juncMain_9_0" tl="juncMain" linkIndex="9" dir="l" state="o"/>
    <connection from="edgeE_O" to="edgeE_I" fromLane="2" toLane="2" via=":juncMain_10_0" tl="juncMain" linkIndex="10" dir="t" state="o"/>
    <connection from="edgeN_I" to="edgeN_O" fromLane="2" toLane="2" via=":juncN_0_0" dir="t" state="M"/>
    <connection from="edgeN_O" to="edgeW_I" fromLane="1" toLane="1" via=":juncMain_0_0" tl="juncMain" linkIndex="0" dir="r" state="o"/>
    <connection from="edgeN_O" to="edgeW_I" fromLane="1" toLane="2" via=":juncMain_0_1" tl="juncMain" linkIndex="1" dir="r" state="o"/>
    <connection from="edgeN_O" to="edgeS_I" fromLane="1" toLane="1" via=":juncMain_2_0" tl="juncMain" linkIndex="2" dir="s" state="o"/>
    <connection from="edgeN_O" to="edgeW_I" fromLane="2" toLane="1" via=":juncMain_3_0" tl="juncMain" linkIndex="3" dir="r" state="o"/>
    <connection from="edgeN_O" to="edgeW_I" fromLane="2" toLane="2" via=":juncMain_3_1" tl="juncMain" linkIndex="4" dir="r" state="o"/>
    <connection from="edgeN_O" to="edgeS_I" fromLane="2" toLane="2" via=":juncMain_5_0" tl="juncMain" linkIndex="5" dir="s" state="o"/>
    <connection from="edgeN_O" to="edgeE_I" fromLane="2" toLane="2" via=":juncMain_6_0" tl="juncMain" linkIndex="6" dir="l" state="o"/>
    <connection from="edgeN_O" to="edgeN_I" fromLane="2" toLane="2" via=":juncMain_7_0" tl="juncMain" linkIndex="7" dir="t" state="o"/>
    <connection from="edgeS_I" to="edgeS_O" fromLane="2" toLane="2" via=":juncS_0_0" dir="t" state="M"/>
    <connection from="edgeS_O" to="edgeE_I" fromLane="1" toLane="1" via=":juncMain_11_0" tl="juncMain" linkIndex="11" dir="r" state="o"/>
    <connection from="edgeS_O" to="edgeE_I" fromLane="1" toLane="2" via=":juncMain_11_1" tl="juncMain" linkIndex="12" dir="r" state="o"/>
    <connection from="edgeS_O" to="edgeN_I" fromLane="1" toLane="1" via=":juncMain_13_0" tl="juncMain" linkIndex="13" dir="s" state="o"/>
    <connection from="edgeS_O" to="edgeE_I" fromLane="2" toLane="1" via=":juncMain_14_0" tl="juncMain" linkIndex="14" dir="r" state="o"/>
    <connection from="edgeS_O" to="edgeE_I" fromLane="2" toLane="2" via=":juncMain_14_1" tl="juncMain" linkIndex="15" dir="r" state="o"/>
    <connection from="edgeS_O" to="edgeN_I" fromLane="2" toLane="2" via=":juncMain_16_0" tl="juncMain" linkIndex="16" dir="s" state="o"/>
    <connection from="edgeS_O" to="edgeW_I" fromLane="2" toLane="2" via=":juncMain_17_0" tl="juncMain" linkIndex="17" dir="l" state="o"/>
    <connection from="edgeS_O" to="edgeS_I" fromLane="2" toLane="2" via=":juncMain_18_0" tl="juncMain" linkIndex="18" dir="t" state="o"/>
    <connection from="edgeW_I" to="edgeW_O" fromLane="2" toLane="2" via=":juncW_0_0" dir="t" state="M"/>
    <connection from="edgeW_O" to="edgeS_I" fromLane="1" toLane="1" via=":juncMain_19_0" tl="juncMain" linkIndex="19" dir="r" state="o"/>
    <connection from="edgeW_O" to="edgeN_I" fromLane="2" toLane="2" via=":juncMain_20_0" tl="juncMain" linkIndex="20" dir="l" state="o"/>
    <connection from="edgeW_O" to="edgeW_I" fromLane="2" toLane="2" via=":juncMain_21_0" tl="juncMain" linkIndex="21" dir="t" state="o"/>

    <connection from=":juncE_0" to="edgeE_O" fromLane="0" toLane="2" dir="t" state="M"/>
    <connection from=":juncMain_0" to="edgeW_I" fromLane="0" toLane="1" via=":juncMain_22_0" dir="r" state="m"/>
    <connection from=":juncMain_22" to="edgeW_I" fromLane="0" toLane="1" dir="r" state="M"/>
    <connection from=":juncMain_0" to="edgeW_I" fromLane="1" toLane="2" via=":juncMain_23_0" dir="r" state="m"/>
    <connection from=":juncMain_23" to="edgeW_I" fromLane="0" toLane="2" dir="r" state="M"/>
    <connection from=":juncMain_2" to="edgeS_I" fromLane="0" toLane="1" dir="s" state="M"/>
    <connection from=":juncMain_3" to="edgeW_I" fromLane="0" toLane="1" via=":juncMain_24_0" dir="r" state="m"/>
    <connection from=":juncMain_24" to="edgeW_I" fromLane="0" toLane="1" dir="r" state="M"/>
    <connection from=":juncMain_3" to="edgeW_I" fromLane="1" toLane="2" via=":juncMain_25_0" dir="r" state="m"/>