<?xml version="1.0" encoding="UTF-8"?>

<!-- generated on 2021-10-23 05:39:16 by Eclipse SUMO netconvert Version 1.10.0
<configuration xmlns:xsi="http://www.w3.org/2001/XMLSchema-instance" xsi:noNamespaceSchemaLocation="http://sumo.dlr.de/xsd/netconvertConfiguration.xsd">

    <input>
        <node-files value="data11/cross.nod.xml"/>
        <edge-files value="data11/cross.edg.xml"/>
        <connection-files value="data11/cross.con.xml"/>
    </input>

    <output>
        <output-file value="data11/cross.net.xml"/>
    </output>

    <junctions>
        <no-turnarounds.except-turnlane value="true"/>
    </junctions>

    <report>
        <aggregate-warnings value="5"/>
    </report>

</configuration>
-->

<net version="1.9" junctionCornerDetail="5" limitTurnSpeed="5.50" xmlns:xsi="http://www.w3.org/2001/XMLSchema-instance" xsi:noNamespaceSchemaLocation="http://sumo.dlr.de/xsd/net_file.xsd">

    <location netOffset="300.00,900.00" convBoundary="0.00,0.00,1300.00,1500.00" origBoundary="-300.00,-900.00,1000.00,600.00" projParameter="!"/>

    <edge id=":juncE_0" function="internal">
        <lane id=":juncE_0_0" index="0" disallow="pedestrian" speed="3.65" length="4.67" shape="1300.00,898.40 1301.20,899.20 1301.60,900.00 1301.20,900.80 1300.00,901.60"/>
    </edge>
    <edge id=":juncE_w0" function="walkingarea">
        <lane id=":juncE_w0_0" index="0" allow="pedestrian" speed="1.00" length="28.80" width="3.20" shape="1300.00,912.80 1300.00,916.00 1300.00,884.00 1300.00,887.20"/>
    </edge>
    <edge id=":juncMain_0" function="internal">
        <lane id=":juncMain_0_0" index="0" disallow="pedestrian" speed="6.86" length="5.34" shape="285.60,917.50 285.21,914.74 284.02,912.78 283.80,912.64"/>
    </edge>
    <edge id=":juncMain_1" function="internal">
        <lane id=":juncMain_1_0" index="0" disallow="pedestrian" speed="18.88" length="35.00" shape="285.60,917.50 285.60,882.50"/>
        <lane id=":juncMain_1_1" index="1" disallow="pedestrian" speed="18.88" length="35.00" shape="288.80,917.50 288.80,882.50"/>
        <lane id=":juncMain_1_2" index="2" disallow="pedestrian" speed="18.88" length="35.00" shape="292.00,917.50 292.00,882.50"/>
        <lane id=":juncMain_1_3" index="3" disallow="pedestrian" speed="18.88" length="35.00" shape="295.20,917.50 295.20,882.50"/>
    </edge>
    <edge id=":juncMain_5" function="internal">
        <lane id=":juncMain_5_0" index="0" disallow="pedestrian" speed="12.47" length="16.48" shape="298.40,917.50 299.79,907.74 303.20,902.07"/>
        <lane id=":juncMain_5_1" index="1" disallow="pedestrian" speed="12.03" length="14.41" shape="298.40,917.50 299.79,909.14 303.20,904.28"/>
    </edge>
    <edge id=":juncMain_7" function="internal">
        <lane id=":juncMain_7_0" index="0" disallow="pedestrian" speed="3.65" length="2.34" shape="298.40,917.50 299.20,916.30 300.00,915.90"/>
    </edge>
    <edge id=":juncMain_28" function="internal">
        <lane id=":juncMain_28_0" index="0" disallow="pedestrian" speed="6.86" length="4.82" shape="283.80,912.64 282.06,911.59 279.30,911.20"/>
    </edge>
    <edge id=":juncMain_29" function="internal">
        <lane id=":juncMain_29_0" index="0" disallow="pedestrian" speed="12.47" length="19.49" shape="303.20,902.07 303.98,900.78 310.94,896.59 320.70,895.20"/>
    </edge>
    <edge id=":juncMain_30" function="internal">
        <lane id=":juncMain_30_0" index="0" disallow="pedestrian" speed="12.03" length="19.01" shape="303.20,904.28 303.98,903.18 310.94,899.59 320.70,898.40"/>
    </edge>
    <edge id=":juncMain_31" function="internal">
        <lane id=":juncMain_31_0" index="0" disallow="pedestrian" speed="3.65" length="2.34" shape="300.00,915.90 300.80,916.30 301.60,917.50"/>
    </edge>
    <edge id=":juncMain_8" function="internal">
        <lane id=":juncMain_8_0" index="0" disallow="pedestrian" speed="19.88" length="41.40" shape="320.70,911.20 279.30,911.20"/>
        <lane id=":juncMain_8_1" index="1" disallow="pedestrian" speed="19.88" length="41.40" shape="320.70,908.00 279.30,908.00"/>
        <lane id=":juncMain_8_2" index="2" disallow="pedestrian" speed="19.88" length="41.40" shape="320.70,904.80 279.30,904.80"/>
    </edge>
    <edge id=":juncMain_11" function="internal">
        <lane id=":juncMain_11_0" index="0" disallow="pedestrian" speed="12.47" length="20.81" shape="320.70,904.80 310.94,903.41 303.98,899.22 302.52,896.80"/>
        <lane id=":juncMain_11_1" index="1" disallow="pedestrian" speed="12.03" length="17.66" shape="320.70,901.60 310.94,900.41 303.98,896.83"/>
    </edge>
    <edge id=":juncMain_13" function="internal">
        <lane id=":juncMain_13_0" index="0" disallow="pedestrian" speed="3.65" length="2.34" shape="320.70,901.60 319.50,900.80 319.10,900.00"/>
    </edge>
    <edge id=":juncMain_32" function="internal">
        <lane id=":juncMain_32_0" index="0" disallow="pedestrian" speed="12.47" length="15.15" shape="302.52,896.80 299.79,892.26 298.40,882.50"/>
    </edge>
    <edge id=":juncMain_33" function="internal">
        <lane id=":juncMain_33_0" index="0" disallow="pedestrian" speed="12.03" length="15.76" shape="303.98,896.83 299.79,890.86 298.40,882.50"/>
    </edge>
    <edge id=":juncMain_34" function="internal">
        <lane id=":juncMain_34_0" index="0" disallow="pedestrian" speed="3.65" length="2.34" shape="319.10,900.00 319.50,899.20 320.70,898.40"/>
    </edge>
    <edge id=":juncMain_14" function="internal">
        <lane id=":juncMain_14_0" index="0" disallow="pedestrian" speed="6.86" length="5.34" shape="314.40,882.50 314.79,885.26 315.98,887.22 316.20,887.36"/>
    </edge>
    <edge id=":juncMain_15" function="internal">
        <lane id=":juncMain_15_0" index="0" disallow="pedestrian" speed="18.88" length="35.00" shape="314.40,882.50 314.40,917.50"/>
        <lane id=":juncMain_15_1" index="1" disallow="pedestrian" speed="18.88" length="35.00" shape="311.20,882.50 311.20,917.50"/>
        <lane id=":juncMain_15_2" index="2" disallow="pedestrian" speed="18.88" length="35.00" shape="308.00,882.50 308.00,917.50"/>
        <lane id=":juncMain_15_3" index="3" disallow="pedestrian" speed="18.88" length="35.00" shape="304.80,882.50 304.80,917.50"/>
    </edge>
    <edge id=":juncMain_19" function="internal">
        <lane id=":juncMain_19_0" index="0" disallow="pedestrian" speed="12.47" length="16.48" shape="301.60,882.50 300.21,892.26 296.80,897.93"/>
        <lane id=":juncMain_19_1" index="1" disallow="pedestrian" speed="12.03" length="14.41" shape="301.60,882.50 300.21,890.86 296.80,895.72"/>
    </edge>
    <edge id=":juncMain_21" function="internal">
        <lane id=":juncMain_21_0" index="0" disallow="pedestrian" speed="3.65" length="2.34" shape="301.60,882.50 300.80,883.70 300.00,884.10"/>
    </edge>
    <edge id=":juncMain_35" function="internal">
        <lane id=":juncMain_35_0" index="0" disallow="pedestrian" speed="6.86" length="4.82" shape="316.20,887.36 317.94,888.41 320.70,888.80"/>
    </edge>
    <edge id=":juncMain_36" function="internal">
        <lane id=":juncMain_36_0" index="0" disallow="pedestrian" speed="12.47" length="19.49" shape="296.80,897.93 296.02,899.22 289.06,903.41 279.30,904.80"/>
    </edge>
    <edge id=":juncMain_37" function="internal">
        <lane id=":juncMain_37_0" index="0" disallow="pedestrian" speed="12.03" length="19.01" shape="296.80,895.72 296.02,896.82 289.06,900.41 279.30,901.60"/>
    </edge>
    <edge id=":juncMain_38" function="internal">
        <lane id=":juncMain_38_0" index="0" disallow="pedestrian" speed="3.65" length="2.34" shape="300.00,884.10 299.20,883.70 298.40,882.50"/>
    </edge>
    <edge id=":juncMain_22" function="internal">
        <lane id=":juncMain_22_0" index="0" disallow="pedestrian" speed="19.88" length="41.40" shape="279.30,888.80 320.70,888.80"/>
        <lane id=":juncMain_22_1" index="1" disallow="pedestrian" speed="19.88" length="41.40" shape="279.30,892.00 320.70,892.00"/>
        <lane id=":juncMain_22_2" index="2" disallow="pedestrian" speed="19.88" length="41.40" shape="279.30,895.20 320.70,895.20"/>
    </edge>
    <edge id=":juncMain_25" function="internal">
        <lane id=":juncMain_25_0" index="0" disallow="pedestrian" speed="12.47" length="20.81" shape="279.30,895.20 289.06,896.59 296.02,900.78 297.48,903.20"/>
        <lane id=":juncMain_25_1" index="1" disallow="pedestrian" speed="12.03" length="17.66" shape="279.30,898.40 289.06,899.59 296.02,903.17"/>
    </edge>
    <edge id=":juncMain_27" function="internal">
        <lane id=":juncMain_27_0" index="0" disallow="pedestrian" speed="3.65" length="2.34" shape="279.30,898.40 280.50,899.20 280.90,900.00"/>
    </edge>
    <edge id=":juncMain_39" function="internal">
        <lane id=":juncMain_39_0" index="0" disallow="pedestrian" speed="12.47" length="15.15" shape="297.48,903.20 300.21,907.74 301.60,917.50"/>
    </edge>
    <edge id=":juncMain_40" function="internal">
        <lane id=":juncMain_40_0" index="0" disallow="pedestrian" speed="12.03" length="15.76" shape="296.02,903.17 300.21,909.14 301.60,917.50"/>
    </edge>
    <edge id=":juncMain_41" function="internal">
        <lane id=":juncMain_41_0" index="0" disallow="pedestrian" speed="3.65" length="2.34" shape="280.90,900.00 280.50,900.80 279.30,901.60"/>
    </edge>
    <edge id=":juncMain_c0" function="crossing" crossingEdges="edgeN_I edgeN_O">
        <lane id=":juncMain_c0_0" index="0" allow="pedestrian" speed="1.00" length="32.00" width="4.50" shape="316.00,915.25 284.00,915.25"/>
    </edge>
    <edge id=":juncMain_c1" function="crossing" crossingEdges="edgeE_I edgeE_O">
        <lane id=":juncMain_c1_0" index="0" allow="pedestrian" speed="1.00" length="25.60" width="4.50" shape="318.45,887.20 318.45,912.80"/>
    </edge>
    <edge id=":juncMain_c2" function="crossing" crossingEdges="edgeS_I edgeS_O">
        <lane id=":juncMain_c2_0" index="0" allow="pedestrian" speed="1.00" length="32.00" width="4.50" shape="284.00,884.75 316.00,884.75"/>
    </edge>
    <edge id=":juncMain_c3" function="crossing" crossingEdges="edgeW_I edgeW_O">
        <lane id=":juncMain_c3_0" index="0" allow="pedestrian" speed="1.00" length="25.60" width="4.50" shape="281.55,912.80 281.55,887.20"/>
    </edge>
    <edge id=":juncMain_w0" function="walkingarea">
        <lane id=":juncMain_w0_0" index="0" allow="pedestrian" speed="1.00" length="3.82" width="4.50" shape="279.30,912.80 279.30,916.00 280.80,917.50 284.00,917.50 283.87,916.06 283.48,914.89 282.82,913.98 281.91,913.32 280.74,912.93"/>
    </edge>
    <edge id=":juncMain_w1" function="walkingarea">
        <lane id=":juncMain_w1_0" index="0" allow="pedestrian" speed="1.00" length="3.82" width="4.50" shape="316.00,917.50 319.20,917.50 320.70,916.00 320.70,912.80 319.26,912.93 318.09,913.32 317.18,913.98 316.52,914.89 316.13,916.06"/>
    </edge>
    <edge id=":juncMain_w2" function="walkingarea">
        <lane id=":juncMain_w2_0" index="0" allow="pedestrian" speed="1.00" length="3.82" width="4.50" shape="320.70,887.20 320.70,884.00 319.20,882.50 316.00,882.50 316.13,883.94 316.52,885.11 317.18,886.02 318.09,886.68 319.26,887.07"/>
    </edge>
    <edge id=":juncMain_w3" function="walkingarea">
        <lane id=":juncMain_w3_0" index="0" allow="pedestrian" speed="1.00" length="3.82" width="4.50" shape="284.00,882.50 280.80,882.50 279.30,884.00 279.30,887.20 280.74,887.07 281.91,886.68 282.82,886.02 283.48,885.11 283.87,883.94"/>
    </edge>
    <edge id=":juncN_0" function="internal">
        <lane id=":juncN_0_0" index="0" disallow="pedestrian" speed="3.65" length="4.67" shape="301.60,1500.00 300.80,1501.20 300.00,1501.60 299.20,1501.20 298.40,1500.00"/>
    </edge>
    <edge id=":juncN_w0" function="walkingarea">
        <lane id=":juncN_w0_0" index="0" allow="pedestrian" speed="1.00" length="35.20" width="3.20" shape="284.00,1500.00 280.80,1500.00 319.20,1500.00 316.00,1500.00"/>
    </edge>
    <edge id=":juncS_0" function="internal">
        <lane id=":juncS_0_0" index="0" disallow="pedestrian" speed="3.65" length="4.67" shape="298.40,0.00 299.20,-1.20 300.00,-1.60 300.80,-1.20 301.60,0.00"/>
    </edge>
    <edge id=":juncS_w0" function="walkingarea">
        <lane id=":juncS_w0_0" index="0" allow="pedestrian" speed="1.00" length="35.20" width="3.20" shape="316.00,0.00 319.20,0.00 280.80,0.00 284.00,0.00"/>
    </edge>
    <edge id=":juncW_0" function="internal">
        <lane id=":juncW_0_0" index="0" disallow="pedestrian" speed="3.65" length="4.67" shape="0.00,901.60 -1.20,900.80 -1.60,900.00 -1.20,899.20 0.00,898.40"/>
    </edge>
    <edge id=":juncW_w0" function="walkingarea">
        <lane id=":juncW_w0_0" index="0" allow="pedestrian" speed="1.00" length="28.80" width="3.20" shape="0.00,887.20 0.00,884.00 0.00,916.00 0.00,912.80"/>
    </edge>

    <edge id="edgeE_I" from="juncMain" to="juncE" priority="46">
        <lane id="edgeE_I_0" index="0" allow="pedestrian" speed="22.54" length="979.30" shape="320.70,885.60 1300.00,885.60"/>
        <lane id="edgeE_I_1" index="1" disallow="pedestrian" speed="22.54" length="979.30" shape="320.70,888.80 1300.00,888.80"/>
        <lane id="edgeE_I_2" index="2" disallow="pedestrian" speed="22.54" length="979.30" shape="320.70,892.00 1300.00,892.00"/>
        <lane id="edgeE_I_3" index="3" disallow="pedestrian" speed="22.54" length="979.30" shape="320.70,895.20 1300.00,895.20"/>
        <lane id="edgeE_I_4" index="4" disallow="pedestrian" speed="22.54" length="979.30" shape="320.70,898.40 1300.00,898.40"/>
    </edge>
    <edge id="edgeE_O" from="juncE" to="juncMain" priority="78">
        <lane id="edgeE_O_0" index="0" allow="pedestrian" speed="17.21" length="979.30" shape="1300.00,914.40 320.70,914.40"/>
        <lane id="edgeE_O_1" index="1" disallow="pedestrian" speed="17.21" length="979.30" shape="1300.00,911.20 320.70,911.20"/>
        <lane id="edgeE_O_2" index="2" disallow="pedestrian" speed="17.21" length="979.30" shape="1300.00,908.00 320.70,908.00"/>
        <lane id="edgeE_O_3" index="3" disallow="pedestrian" speed="17.21" length="979.30" shape="1300.00,904.80 320.70,904.80"/>
        <lane id="edgeE_O_4" index="4" disallow="pedestrian" speed="17.21" length="979.30" shape="1300.00,901.60 320.70,901.60"/>
    </edge>
    <edge id="edgeN_I" from="juncMain" to="juncN" priority="46">
        <lane id="edgeN_I_0" index="0" allow="pedestrian" speed="19.91" length="582.50" shape="317.60,917.50 317.60,1500.00"/>
        <lane id="edgeN_I_1" index="1" disallow="pedestrian" speed="19.91" length="582.50" shape="314.40,917.50 314.40,1500.00"/>
        <lane id="edgeN_I_2" index="2" disallow="pedestrian" speed="19.91" length="582.50" shape="311.20,917.50 311.20,1500.00"/>
        <lane id="edgeN_I_3" index="3" disallow="pedestrian" speed="19.91" length="582.50" shape="308.00,917.50 308.00,1500.00"/>
        <lane id="edgeN_I_4" index="4" disallow="pedestrian" speed="19.91" length="582.50" shape="304.80,917.50 304.80,1500.00"/>
        <lane id="edgeN_I_5" index="5" disallow="pedestrian" speed="19.91" length="582.50" shape="301.60,917.50 301.60,1500.00"/>
    </edge>
    <edge id="edgeN_O" from="juncN" to="juncMain" priority="78">
        <lane id="edgeN_O_0" index="0" allow="pedestrian" speed="17.85" length="582.50" shape="282.40,1500.00 282.40,917.50"/>
        <lane id="edgeN_O_1" index="1" disallow="pedestrian" speed="17.85" length="582.50" shape="285.60,1500.00 285.60,917.50"/>
        <lane id="edgeN_O_2" index="2" disallow="pedestrian" speed="17.85" length="582.50" shape="288.80,1500.00 288.80,917.50"/>
        <lane id="edgeN_O_3" index="3" disallow="pedestrian" speed="17.85" length="582.50" shape="292.00,1500.00 292.00,917.50"/>
        <lane id="edgeN_O_4" index="4" disallow="pedestrian" speed="17.85" length="582.50" shape="295.20,1500.00 295.20,917.50"/>
        <lane id="edgeN_O_5" index="5" disallow="pedestrian" speed="17.85" length="582.50" shape="298.40,1500.00 298.40,917.50"/>
    </edge>
    <edge id="edgeS_I" from="juncMain" to="juncS" priority="46">
        <lane id="edgeS_I_0" index="0" allow="pedestrian" speed="19.91" length="882.50" shape="282.40,882.50 282.40,0.00"/>
        <lane id="edgeS_I_1" index="1" disallow="pedestrian" speed="19.91" length="882.50" shape="285.60,882.50 285.60,0.00"/>
        <lane id="edgeS_I_2" index="2" disallow="pedestrian" speed="19.91" length="882.50" shape="288.80,882.50 288.80,0.00"/>
        <lane id="edgeS_I_3" index="3" disallow="pedestrian" speed="19.91" length="882.50" shape="292.00,882.50 292.00,0.00"/>
        <lane id="edgeS_I_4" index="4" disallow="pedestrian" speed="19.91" length="882.50" shape="295.20,882.50 295.20,0.00"/>
        <lane id="edgeS_I_5" index="5" disallow="pedestrian" speed="19.91" length="882.50" shape="298.40,882.50 298.40,0.00"/>
    </edge>
    <edge id="edgeS_O" from="juncS" to="juncMain" priority="78">
        <lane id="edgeS_O_0" index="0" allow="pedestrian" speed="17.85" length="882.50" shape="317.60,0.00 317.60,882.50"/>
        <lane id="edgeS_O_1" index="1" disallow="pedestrian" speed="17.85" length="882.50" shape="314.40,0.00 314.40,882.50"/>
        <lane id="edgeS_O_2" index="2" disallow="pedestrian" speed="17.85" length="882.50" shape="311.20,0.00 311.20,882.50"/>
        <lane id="edgeS_O_3" index="3" disallow="pedestrian" speed="17.85" length="882.50" shape="308.00,0.00 308.00,882.50"/>
        <lane id="edgeS_O_4" index="4" disallow="pedestrian" speed="17.85" length="882.50" shape="304.80,0.00 304.80,882.50"/>
        <lane id="edgeS_O_5" index="5" disallow="pedestrian" speed="17.85" length="882.50" shape="301.60,0.00 301.60,882.50"/>
    </edge>
    <edge id="edgeW_I" from="juncMain" to="juncW" priority="46">
        <lane id="edgeW_I_0" index="0" allow="pedestrian" speed="22.54" length="279.30" shape="279.30,914.40 0.00,914.40"/>
        <lane id="edgeW_I_1" index="1" disallow="pedestrian" speed="22.54" length="279.30" shape="279.30,911.20 0.00,911.20"/>
        <lane id="edgeW_I_2" index="2" disallow="pedestrian" speed="22.54" length="279.30" shape="279.30,908.00 0.00,908.00"/>
        <lane id="edgeW_I_3" index="3" disallow="pedestrian" speed="22.54" length="279.30" shape="279.30,904.80 0.00,904.80"/>
        <lane id="edgeW_I_4" index="4" disallow="pedestrian" speed="22.54" length="279.30" shape="279.30,901.60 0.00,901.60"/>
    </edge>
    <edge id="edgeW_O" from="juncW" to="juncMain" priority="78">
        <lane id="edgeW_O_0" index="0" allow="pedestrian" speed="17.21" length="279.30" shape="0.00,885.60 279.30,885.60"/>
        <lane id="edgeW_O_1" index="1" disallow="pedestrian" speed="17.21" length="279.30" shape="0.00,888.80 279.30,888.80"/>
        <lane id="edgeW_O_2" index="2" disallow="pedestrian" speed="17.21" length="279.30" shape="0.00,892.00 279.30,892.00"/>
        <lane id="edgeW_O_3" index="3" disallow="pedestrian" speed="17.21" length="279.30" shape="0.00,895.20 279.30,895.20"/>
        <lane id="edgeW_O_4" index="4" disallow="pedestrian" speed="17.21" length="279.30" shape="0.00,898.40 279.30,898.40"/>
    </edge>

    <tlLogic id="juncMain" type="static" programID="0" offset="0">
        <phase duration="26" state="gGGGGgggrrrrrrgGGGGgggrrrrrrrGrG"/>
        <phase duration="5"  state="gGGGGgggrrrrrrgGGGGgggrrrrrrrrrr"/>
        <phase duration="4"  state="yyyyygggrrrrrryyyyygggrrrrrrrrrr"/>
        <phase duration="6"  state="rrrrrGGGrrrrrrrrrrrGGGrrrrrrrrrr"/>
        <phase duration="4"  state="rrrrryyyrrrrrrrrrrryyyrrrrrrrrrr"/>
        <phase duration="26" state="rrrrrrrrGGGgggrrrrrrrrGGGgggGrGr"/>
        <phase duration="5"  state="rrrrrrrrGGGgggrrrrrrrrGGGgggrrrr"/>
        <phase duration="4"  state="rrrrrrrryyyyggrrrrrrrryyyyggrrrr"/>
        <phase duration="6"  state="rrrrrrrrrrrrGGrrrrrrrrrrrrGGrrrr"/>
        <phase duration="4"  state="rrrrrrrrrrrryyrrrrrrrrrrrryyrrrr"/>
    </tlLogic>

    <junction id="juncE" type="priority" x="1300.00" y="900.00" incLanes="edgeE_I_0 edgeE_I_1 edgeE_I_2 edgeE_I_3 edgeE_I_4" intLanes=":juncE_0_0" shape="1300.00,900.00 1300.00,884.00 1300.00,900.00">
        <request index="0" response="0" foes="0" cont="0"/>
    </junction>
    <junction id="juncMain" type="traffic_light" x="300.00" y="900.00" incLanes="edgeN_O_0 edgeN_O_1 edgeN_O_2 edgeN_O_3 edgeN_O_4 edgeN_O_5 edgeE_O_0 edgeE_O_1 edgeE_O_2 edgeE_O_3 edgeE_O_4 edgeS_O_0 edgeS_O_1 edgeS_O_2 edgeS_O_3 edgeS_O_4 edgeS_O_5 edgeW_O_0 edgeW_O_1 edgeW_O_2 edgeW_O_3 edgeW_O_4 :juncMain_w1_0 :juncMain_w2_0 :juncMain_w3_0 :juncMain_w0_0" intLanes=":juncMain_28_0 :juncMain_1_0 :juncMain_1_1 :juncMain_1_2 :juncMain_1_3 :juncMain_29_0 :juncMain_30_0 :juncMain_31_0 :juncMain_8_0 :juncMain_8_1 :juncMain_8_2 :juncMain_32_0 :juncMain_33_0 :juncMain_34_0 :juncMain_35_0 :juncMain_15_0 :juncMain_15_1 :juncMain_15_2 :juncMain_15_3 :juncMain_36_0 :juncMain_37_0 :juncMain_38_0 :juncMain_22_0 :juncMain_22_1 :juncMain_22_2 :juncMain_39_0 :juncMain_40_0 :juncMain_41_0 :juncMain_c0_0 :juncMain_c1_0 :juncMain_c2_0 :juncMain_c3_0" shape="280.80,917.50 319.20,917.50 319.37,916.67 319.58,916.38 319.87,916.17 320.24,916.04 320.70,916.00 320.70,884.00 319.87,883.83 319.58,883.62 319.37,883.33 319.24,882.96 319.20,882.50 280.80,882.50 280.63,883.33 280.42,883.62 280.13,883.83 279.76,883.96 279.30,884.00 279.30,916.00 280.13,916.17 280.42,916.38 280.63,916.67 280.76,917.04">
        <request index="0"  response="10010000000000000000000000000000" foes="10010000000000000000011100000000" cont="1"/>
        <request index="1"  response="01010110000000000000000000000000" foes="01010111110110000000011100000000" cont="0"/>
        <request index="2"  response="01010110000000000000000000000000" foes="01010111110110000000011100000000" cont="0"/>
        <request index="3"  response="01010110000000000000000000000000" foes="01010111110110000000011100000000" cont="0"/>
        <request index="4"  response="01010110000000000000000000000000" foes="01010111110110000000011100000000" cont="0"/>
        <request index="5"  response="00110110000001111001100000000000" foes="00110111110001111011111100000000" cont="1"/>
        <request index="6"  response="00110110000001111001100000000000" foes="00110111110001111011111100000000" cont="1"/>
        <request index="7"  response="00010110000000000000000000000000" foes="00010110000000000000000000000000" cont="1"/>
        <request index="8"  response="10100000000111111000000001111111" foes="10100110000111111000000001111111" cont="0"/>
        <request index="9"  response="10100000000111111000000001111111" foes="10100110000111111000000001111111" cont="0"/>
        <request index="10" response="10100000000111111000000001111111" foes="10100110000111111000000001111111" cont="0"/>
        <request index="11" response="01100001110111111001000001100000" foes="01100001111111111001000001100000" cont="1"/>
        <request index="12" response="01100001110111111000000001100000" foes="01100001111111111000100001100000" cont="1"/>
        <request index="13" response="00100000000000000000000001100000" foes="00100000000000000000000001100000" cont="1"/>
        <request index="14" response="01100000000000000000000000000000" foes="01100001110000000000000000000000" cont="1"/>
        <request index="15" response="01010000000000000001100000000000" foes="01010001110000000001111101100000" cont="0"/>
        <request index="16" response="01010000000000000001100000000000" foes="01010001110000000001111101100000" cont="0"/>
        <request index="17" response="01010000000000000001100000000000" foes="01010001110000000001111101100000" cont="0"/>
        <request index="18" response="01010000000000000001100000000000" foes="01010001110000000001111101100000" cont="0"/>
        <request index="19" response="11000110000000000001100000011110" foes="11001111110000000001111100011110" cont="1"/>
        <request index="20" response="11000110000000000001100000011110" foes="11001111110000000001111100011110" cont="1"/>
        <request index="21" response="01000000000000000001100000000000" foes="01000000000000000001100000000000" cont="1"/>
        <request index="22" response="10100000000111111100000001111110" foes="10100000000111111101100001111110" cont="0"/>
        <request index="23" response="10100000000111111100000001111110" foes="10100000000111111101100001111110" cont="0"/>
        <request index="24" response="10100000000111111100000001111110" foes="10100000000111111101100001111110" cont="0"/>
        <request index="25" response="10010100000110000000011101111110" foes="10010100000110000000011111111110" cont="1"/>
        <request index="26" response="10010000000110000000011101111110" foes="10010010000110000000011111111110" cont="1"/>
        <request index="27" response="10000000000110000000000000000000" foes="10000000000110000000000000000000" cont="1"/>
        <request index="28" response="00000000000000000000000000000000" foes="00000110000001111000000011111111" cont="0"/>
        <request index="29" response="00000000000000000000000000000000" foes="00000001110000000111111101100000" cont="0"/>
        <request index="30" response="00000000000000000000000000000000" foes="00000000001111111101100000011110" cont="0"/>
        <request index="31" response="00000000000000000000000000000000" foes="00001111110110000000011100000001" cont="0"/>
    </junction>
    <junction id="juncN" type="priority" x="300.00" y="1500.00" incLanes="edgeN_I_0 edgeN_I_1 edgeN_I_2 edgeN_I_3 edgeN_I_4 edgeN_I_5" intLanes=":juncN_0_0" shape="300.00,1500.00 319.20,1500.00 300.00,1500.00">
        <request index="0" response="0" foes="0" cont="0"/>
    </junction>
    <junction id="juncS" type="priority" x="300.00" y="0.00" incLanes="edgeS_I_0 edgeS_I_1 edgeS_I_2 edgeS_I_3 edgeS_I_4 edgeS_I_5" intLanes=":juncS_0_0" shape="300.00,0.00 280.80,0.00 300.00,0.00">
        <request index="0" response="0" foes="0" cont="0"/>
    </junction>
    <junction id="juncW" type="priority" x="0.00" y="900.00" incLanes="edgeW_I_0 edgeW_I_1 edgeW_I_2 edgeW_I_3 edgeW_I_4" intLanes=":juncW_0_0" shape="0.00,900.00 0.00,916.00 0.00,900.00">
        <request index="0" response="0" foes="0" cont="0"/>
    </junction>

    <junction id=":juncMain_28_0" type="internal" x="283.80" y="912.64" incLanes=":juncMain_0_0" intLanes=":juncMain_8_0 :juncMain_8_1 :juncMain_8_2 :juncMain_19_0 :juncMain_19_1 :juncMain_27_0 :juncMain_c0_0 :juncMain_c3_0"/>
    <junction id=":juncMain_29_0" type="internal" x="303.20" y="902.07" incLanes=":juncMain_5_0 edgeS_O_1 edgeS_O_2 edgeS_O_3 edgeS_O_4" intLanes=":juncMain_8_0 :juncMain_8_1 :juncMain_8_2 :juncMain_11_0 :juncMain_11_1 :juncMain_13_0 :juncMain_14_0 :juncMain_15_0 :juncMain_15_1 :juncMain_15_2 :juncMain_15_3 :juncMain_22_0 :juncMain_22_1 :juncMain_22_2 :juncMain_25_0 :juncMain_25_1 :juncMain_c0_0 :juncMain_c1_0"/>
    <junction id=":juncMain_30_0" type="internal" x="303.20" y="904.28" incLanes=":juncMain_5_1 edgeS_O_1 edgeS_O_2 edgeS_O_3 edgeS_O_4" intLanes=":juncMain_8_0 :juncMain_8_1 :juncMain_8_2 :juncMain_11_0 :juncMain_11_1 :juncMain_13_0 :juncMain_14_0 :juncMain_15_0 :juncMain_15_1 :juncMain_15_2 :juncMain_15_3 :juncMain_22_0 :juncMain_22_1 :juncMain_22_2 :juncMain_25_0 :juncMain_25_1 :juncMain_c0_0 :juncMain_c1_0"/>
    <junction id=":juncMain_31_0" type="internal" x="300.00" y="915.90" incLanes=":juncMain_7_0 edgeS_O_1 edgeS_O_2 edgeS_O_3 edgeS_O_4 edgeW_O_3 edgeW_O_4" intLanes=":juncMain_15_0 :juncMain_15_1 :juncMain_15_2 :juncMain_15_3 :juncMain_25_0 :juncMain_25_1 :juncMain_c0_0 :juncMain_c0_0"/>
    <junction id=":juncMain_32_0" type="internal" x="302.52" y="896.80" incLanes=":juncMain_11_0 edgeW_O_1 edgeW_O_2 edgeW_O_3" intLanes=":juncMain_1_0 :juncMain_1_1 :juncMain_1_2 :juncMain_1_3 :juncMain_5_0 :juncMain_5_1 :juncMain_11_1 :juncMain_15_0 :juncMain_15_1 :juncMain_15_2 :juncMain_15_3 :juncMain_19_0 :juncMain_19_1 :juncMain_21_0 :juncMain_22_0 :juncMain_22_1 :juncMain_22_2 :juncMain_c1_0 :juncMain_c2_0"/>
    <junction id=":juncMain_33_0" type="internal" x="303.98" y="896.83" incLanes=":juncMain_11_1 edgeW_O_1 edgeW_O_2 edgeW_O_3" intLanes=":juncMain_1_0 :juncMain_1_1 :juncMain_1_2 :juncMain_1_3 :juncMain_5_0 :juncMain_5_1 :juncMain_11_0 :juncMain_15_0 :juncMain_15_1 :juncMain_15_2 :juncMain_15_3 :juncMain_19_0 :juncMain_19_1 :juncMain_21_0 :juncMain_22_0 :juncMain_22_1 :juncMain_22_2 :juncMain_c1_0 :juncMain_c2_0"/>
    <junction id=":juncMain_34_0" type="internal" x="319.10" y="900.00" incLanes=":juncMain_13_0 edgeN_O_5 edgeS_O_1 edgeW_O_1 edgeW_O_2 edgeW_O_3" intLanes=":juncMain_5_0 :juncMain_5_1 :juncMain_14_0 :juncMain_22_0 :juncMain_22_1 :juncMain_22_2 :juncMain_c1_0 :juncMain_c1_0"/>
    <junction id=":juncMain_35_0" type="internal" x="316.20" y="887.36" incLanes=":juncMain_14_0" intLanes=":juncMain_5_0 :juncMain_5_1 :juncMain_13_0 :juncMain_22_0 :juncMain_22_1 :juncMain_22_2 :juncMain_c1_0 :juncMain_c2_0"/>
    <junction id=":juncMain_36_0" type="internal" x="296.80" y="897.93" incLanes=":juncMain_19_0 edgeN_O_1 edgeN_O_2 edgeN_O_3 edgeN_O_4" intLanes=":juncMain_0_0 :juncMain_1_0 :juncMain_1_1 :juncMain_1_2 :juncMain_1_3 :juncMain_8_0 :juncMain_8_1 :juncMain_8_2 :juncMain_11_0 :juncMain_11_1 :juncMain_22_0 :juncMain_22_1 :juncMain_22_2 :juncMain_25_0 :juncMain_25_1 :juncMain_27_0 :juncMain_c2_0 :juncMain_c3_0"/>
    <junction id=":juncMain_37_0" type="internal" x="296.80" y="895.72" incLanes=":juncMain_19_1 edgeN_O_1 edgeN_O_2 edgeN_O_3 edgeN_O_4" intLanes=":juncMain_0_0 :juncMain_1_0 :juncMain_1_1 :juncMain_1_2 :juncMain_1_3 :juncMain_8_0 :juncMain_8_1 :juncMain_8_2 :juncMain_11_0 :juncMain_11_1 :juncMain_22_0 :juncMain_22_1 :juncMain_22_2 :juncMain_25_0 :juncMain_25_1 :juncMain_27_0 :juncMain_c2_0 :juncMain_c3_0"/>
    <junction id=":juncMain_38_0" type="internal" x="300.00" y="884.10" incLanes=":juncMain_21_0 edgeE_O_3 edgeE_O_4 edgeN_O_1 edgeN_O_2 edgeN_O_3 edgeN_O_4" intLanes=":juncMain_1_0 :juncMain_1_1 :juncMain_1_2 :juncMain_1_3 :juncMain_11_0 :juncMain_11_1 :juncMain_c2_0 :juncMain_c2_0"/>