<routes>
   <personFlow id="pRegN" begin="0" end="3000" personsPerHour="703.893725">
        <walk edges="edgeN_O edgeS_I" speed="2.181548"/>
    </personFlow>
   <personFlow id="pRegS" begin="0" end="3000" personsPerHour="242.181006">
        <walk edges="edgeS_O edgeN_I" speed="0.930683"/>
    </personFlow>
   <personFlow id="pRegW" begin="0" end="3000" personsPerHour="513.000087">
        <walk edges="edgeW_O edgeE_I" speed="1.708295"/>
    </personFlow>
   <personFlow id="pRegE" begin="0" end="3000" personsPerHour="878.381241">
        <walk edges="edgeE_O edgeW_I" speed="2.066120"/>
    </personFlow>
   <personFlow id="pOppN" begin="0" end="3000" personsPerHour="635.585534" departPos="600.000000">
        <walk edges="edgeN_I edgeS_O" speed="1.847777"/>
    </personFlow>
   <personFlow id="pOppS" begin="0" end="3000" personsPerHour="1059.757821" departPos="900.000000">
        <walk edges="edgeS_I edgeN_O" speed="1.188503"/>
    </personFlow>
   <personFlow id="pOppW" begin="0" end="3000" personsPerHour="837.290950" departPos="300.000000">
        <walk edges="edgeW_I edgeE_O" speed="1.459736"/>
    </personFlow>
   <personFlow id="pOppE" begin="0" end="3000" personsPerHour="183.773832" departPos="1000.000000">
        <walk edges="edgeE_I edgeW_O" speed="2.104800"/>
    </personFlow>

    <route id="edgeN_edgeN" edges="edgeN_O edgeN_I" />
    <route id="edgeN_edgeS" edges="edgeN_O edgeS_I" />
    <route id="edgeN_edgeW" edges="edgeN_O edgeW_I" />
    <route id="edgeN_edgeE" edges="edgeN_O edgeE_I" />
    <route id="edgeS_edgeN" edges="edgeS_O edgeN_I" />
    <route id="edgeS_edgeS" edges="edgeS_O edgeS_I" />
    <route id="edgeS_edgeW" edges="edgeS_O edgeW_I" />
    <route id="edgeS_edgeE" edges="edgeS_O edgeE_I" />
    <route id="edgeW_edgeN" edges="edgeW_O edgeN_I" />
    <route id="edgeW_edgeS" edges="edgeW_O edgeS_I" />
    <route id="edgeW_edgeW" edges="edgeW_O edgeW_I" />
    <route id="edgeW_edgeE" edges="edgeW_O edgeE_I" />
    <route id="edgeE_edgeN" edges="edgeE_O edgeN_I" />
    <route id="edgeE_edgeS" edges="edgeE_O edgeS_I" />
    <route id="edgeE_edgeW" edges="edgeE_O edgeW_I" />
    <route id="edgeE_edgeE" edges="edgeE_O edgeE_I" />
    
   <vType id="vehicleS_0" length="4.261000" accel="3.453000" decel="4.895000" sigma="0.5" minGap="2.455814" maxSpeed="129.166462" guiShape="passenger" />
   <vehicle id="straightS_0" type="vehicleS_0" route="edgeS_edgeN" depart="0" departLane="1" />

   <vType id="vehicleE_1" length="4.278000" accel="3.211000" decel="4.530000" sigma="0.5" minGap="2.455814" maxSpeed="129.166462" guiShape="passenger" />
   <vehicle id="leftE_1" type="vehicleE_1" route="edgeE_edgeS" depart="0" departLane="4" />

   <vType id="vehicleE_2" length="5.134000" accel="2.738000" decel="3.246000" sigma="0.5" minGap="2.455814" maxSpeed="129.166462" guiShape="passenger" />
   <vehicle id="straightE_2" type="vehicleE_2" route="edgeE_edgeW" depart="1" departLane="2" />

   <vType id="vehicleN_3" length="4.510000" accel="2.745000" decel="3.591000" sigma="0.5" minGap="2.455814" maxSpeed="129.166462" guiShape="passenger" />
   <vehicle id="straightN_3" type="vehicleN_3" route="edgeN_edgeS" depart="2" departLane="1" />

   <vType id="vehicleE_4" length="4.382000" accel="2.268000" decel="3.491000" sigma="0.5" minGap="2.455814" maxSpeed="129.166462" guiShape="passenger" />
   <vehicle id="leftE_4" type="vehicleE_4" route="edgeE_edgeS" depart="4" departLane="3" />

   <vType id="vehicleE_5" length="5.082000" accel="3.391000" decel="4.917000" sigma="0.5" minGap="2.455814" maxSpeed="129.166462" guiShape="passenger" />
   <vehicle id="straightE_5" type="vehicleE_5" route="edgeE_edgeW" depart="5" departLane="1" />

   <vType id="vehicleS_6" length="4.151000" accel="2.809000" decel="5.885000" sigma="0.5" minGap="2.455814" maxSpeed="129.166462" guiShape="passenger" />
   <vehicle id="straightS_6" type="vehicleS_6" route="edgeS_edgeN" depart="6" departLane="2" />

   <vType id="vehicleS_7" length="4.430000" accel="2.608000" decel="3.422000" sigma="0.5" minGap="2.455814" maxSpeed="129.166462" guiShape="passenger" />
   <vehicle id="leftS_7" type="vehicleS_7" route="edgeS_edgeW" depart="7" departLane="5" />

   <vType id="vehicleW_8" length="5.220000" accel="3.097000" decel="5.117000" sigma="0.5" minGap="2.455814" maxSpeed="129.166462" guiShape="passenger" />
   <vehicle id="leftW_8" type="vehicleW_8" route="edgeW_edgeN" depart="8" departLane="4" />

   <vType id="vehicleS_9" length="4.787000" accel="2.288000" decel="2.903000" sigma="0.5" minGap="2.455814" maxSpeed="129.166462" guiShape="passenger" />
   <vehicle id="uturnS_9" type="vehicleS_9" route="edgeS_edgeS" depart="9" departLane="5" />

   <vType id="vehicleW_10" length="5.306000" accel="2.886000" decel="2.955000" sigma="0.5" minGap="2.455814" maxSpeed="129.166462" guiShape="passenger" />
   <vehicle id="straightW_10" type="vehicleW_10" route="edgeW_edgeE" depart="9" departLane="2" />

   <vType id="vehicleS_11" length="5.583000" accel="3.352000" decel="3.117000" sigma="0.5" minGap="2.455814" maxSpeed="129.166462" guiShape="passenger" />
   <vehicle id="straightS_11" type="vehicleS_11" route="edgeS_edgeN" depart="10" departLane="3" />

   <vType id="vehicleE_12" length="4.141000" accel="2.130000" decel="5.039000" sigma="0.5" minGap="2.455814" maxSpeed="129.166462" guiShape="passenger" />
   <vehicle id="straightE_12" type="vehicleE_12" route="edgeE_edgeW" depart="10" departLane="3" />

   <vType id="vehicleN_13" length="4.842000" accel="3.530000" decel="4.432000" sigma="0.5" minGap="2.455814" maxSpeed="129.166462" guiShape="passenger" />
   <vehicle id="straightN_13" type="vehicleN_13" route="edgeN_edgeS" depart="13" departLane="1" />

   <vType id="vehicleE_14" length="5.662000" accel="3.580000" decel="3.512000" sigma="0.5" minGap="2.455814" maxSpeed="129.166462" guiShape="passenger" />
   <vehicle id="straightE_14" type="vehicleE_14" route="edgeE_edgeW" depart="13" departLane="1" />

   <vType id="vehicleW_15" length="3.978000" accel="3.497000" decel="5.177000" sigma="0.5" minGap="2.455814" maxSpeed="129.166462" guiShape="passenger" />
   <vehicle id="straightW_15" type="vehicleW_15" route="edgeW_edgeE" depart="14" departLane="1" />

   <vType id="vehicleS_16" length="4.965000" accel="3.865000" decel="5.693000" sigma="0.5" minGap="2.455814" maxSpeed="129.166462" guiShape="passenger" />
   <vehicle id="straightS_16" type="vehicleS_16" route="edgeS_edgeN" depart="15" departLane="2" />

   <vType id="vehicleS_17" length="4.869000" accel="3.186000" decel="2.777000" sigma="0.5" minGap="2.455814" maxSpeed="129.166462" guiShape="passenger" />
   <vehicle id="leftS_17" type="vehicleS_17" route="edgeS_edgeW" depart="17" departLane="5" />

   <vType id="vehicleS_18" length="5.080000" accel="2.511000" decel="3.173000" sigma="0.5" minGap="2.455814" maxSpeed="129.166462" guiShape="passenger" />
   <vehicle id="straightS_18" type="vehicleS_18" route="edgeS_edgeN" depart="18" departLane="4" />

   <vType id="vehicleS_19" length="4.502000" accel="2.866000" decel="5.487000" sigma="0.5" minGap="2.455814" maxSpeed="129.166462" guiShape="passenger" />
   <vehicle id="straightS_19" type="vehicleS_19" route="edgeS_edgeN" depart="19" departLane="1" />

   <vType id="vehicleN_20" length="4.474000" accel="3.679000" decel="3.541000" sigma="0.5" minGap="2.455814" maxSpeed="129.166462" guiShape="passenger" />
   <vehicle id="straightN_20" type="vehicleN_20" route="edgeN_edgeS" depart="20" departLane="2" />

   <vType id="vehicleW_21" length="4.701000" accel="3.703000" decel="2.993000" sigma="0.5" minGap="2.455814" maxSpeed="129.166462" guiShape="passenger" />
   <vehicle id="leftW_21" type="vehicleW_21" route="edgeW_edgeN" depart="20" departLane="3" />

   <vType id="vehicleE_22" length="5.387000" accel="3.873000" decel="5.685000" sigma="0.5" minGap="2.455814" maxSpeed="129.166462" guiShape="passenger" />
   <vehicle id="uturnE_22" type="vehicleE_22" route="edgeE_edgeE" depart="20" departLane="4" />

   <vType id="vehicleS_23" length="4.243000" accel="2.848000" decel="2.940000" sigma="0.5" minGap="2.455814" maxSpeed="129.166462" guiShape="passenger" />
   <vehicle id="straightS_23" type="vehicleS_23" route="edgeS_edgeN" depart="21" departLane="4" />

   <vType id="vehicleW_24" length="5.554000" accel="3.541000" decel="3.657000" sigma="0.5" minGap="2.455814" maxSpeed="129.166462" guiShape="passenger" />
   <vehicle id="straightW_24" type="vehicleW_24" route="edgeW_edgeE" depart="21" departLane="3" />

   <vType id="vehicleE_25" length="5.631000" accel="3.170000" decel="4.469000" sigma="0.5" minGap="2.455814" maxSpeed="129.166462" guiShape="passenger" />
   <vehicle id="straightE_25" type="vehicleE_25" route="edgeE_edgeW" depart="22" departLane="3" />

   <vType id="vehicleS_26" length="5.540000" accel="3.083000" decel="2.934000" sigma="0.5" minGap="2.455814" maxSpeed="129.166462" guiShape="passenger" />
   <vehicle id="straightS_26" type="vehicleS_26" route="edgeS_edgeN" depart="23" departLane="1" />

   <vType id="vehicleE_27" length="5.435000" accel="2.853000" decel="5.733000" sigma="0.5" minGap="2.455814" maxSpeed="129.166462" guiShape="passenger" />
   <vehicle id="leftE_27" type="vehicleE_27" route="edgeE_edgeS" depart="23" departLane="3" />

   <vType id="vehicleS_28" length="5.059000" accel="3.144000" decel="3.755000" sigma="0.5" minGap="2.455814" maxSpeed="129.166462" guiShape="passenger" />
   <vehicle id="leftS_28" type="vehicleS_28" route="edgeS_edgeW" depart="24" departLane="5" />

   <vType id="vehicleE_29" length="5.232000" accel="2.255000" decel="4.204000" sigma="0.5" minGap="2.455814" maxSpeed="129.166462" guiShape="passenger" />
   <vehicle id="straightE_29" type="vehicleE_29" route="edgeE_edgeW" depart="25" departLane="3" />

   <vType id="vehicleS_30" length="4.338000" accel="3.809000" decel="5.541000" sigma="0.5" minGap="2.455814" maxSpeed="129.166462" guiShape="passenger" />
   <vehicle id="straightS_30" type="vehicleS_30" route="edgeS_edgeN" depart="26" departLane="2" />

   <vType id="vehicleE_31" length="5.144000" accel="3.228000" decel="5.877000" sigma="0.5" minGap="2.455814" maxSpeed="129.166462" guiShape="passenger" />
   <vehicle id="straightE_31" type="vehicleE_31" route="edgeE_edgeW" depart="26" departLane="3" />

   <vType id="vehicleN_32" length="4.337000" accel="3.730000" decel="5.103000" sigma="0.5" minGap="2.455814" maxSpeed="129.166462" guiShape="passenger" />
   <vehicle id="straightN_32" type="vehicleN_32" route="edgeN_edgeS" depart="28" departLane="2" />

   <vType id="vehicleN_33" length="4.336000" accel="3.006000" decel="5.618000" sigma="0.5" minGap="2.455814" maxSpeed="129.166462" guiShape="passenger" />
   <vehicle id="straightN_33" type="vehicleN_33" route="edgeN_edgeS" depart="29" departLane="1" />

   <vType id="vehicleS_34" length="4.359000" accel="2.131000" decel="5.194000" sigma="0.5" minGap="2.455814" maxSpeed="129.166462" guiShape="passenger" />
   <vehicle id="straightS_34" type="vehicleS_34" route="edgeS_edgeN" depart="29" departLane="3" />

   <vType id="vehicleW_35" length="5.121000" accel="2.393000" decel="2.868000" sigma="0.5" minGap="2.455814" maxSpeed="129.166462" guiShape="passenger" />
   <vehicle id="uturnW_35" type="vehicleW_35" route="edgeW_edgeW" depart="30" departLane="4" />

   <vType id="vehicleE_36" length="4.641000" accel="2.200000" decel="3.908000" sigma="0.5" minGap="2.455814" maxSpeed="129.166462" guiShape="passenger" />
   <vehicle id="straightE_36" type="vehicleE_36" route="edgeE_edgeW" depart="30" departLane="1" />

   <vType id="vehicleS_37" length="4.039000" accel="3.532000" decel="5.551000" sigma="0.5" minGap="2.455814" maxSpeed="129.166462" guiShape="passenger" />
   <vehicle id="straightS_37" type="vehicleS_37" route="edgeS_edgeN" depart="31" departLane="4" />

   <vType id="vehicleS_38" length="5.321000" accel="2.444000" decel="4.059000" sigma="0.5" minGap="2.455814" maxSpeed="129.166462" guiShape="passenger" />
   <vehicle id="straightS_38" type="vehicleS_38" route="edgeS_edgeN" depart="32" departLane="2" />

   <vType id="vehicleE_39" length="5.325000" accel="3.684000" decel="5.319000" sigma="0.5" minGap="2.455814" maxSpeed="129.166462" guiShape="passenger" />
   <vehicle id="uturnE_39" type="vehicleE_39" route="edgeE_edgeE" depart="32" departLane="4" />

   <vType id="vehicleW_40" length="5.429000" accel="2.526000" decel="5.337000" sigma="0.5" minGap="2.455814" maxSpeed="129.166462" guiShape="passenger" />
   <vehicle id="straightW_40" type="vehicleW_40" route="edgeW_edgeE" depart="33" departLane="2" />

   <vType id="vehicleE_41" length="5.452000" accel="2.527000" decel="4.842000" sigma="0.5" minGap="2.455814" maxSpeed="129.166462" guiShape="passenger" />
   <vehicle id="straightE_41" type="vehicleE_41" route="edgeE_edgeW" depart="33" departLane="2" />

   <vType id="vehicleE_42" length="4.585000" accel="3.895000" decel="4.451000" sigma="0.5" minGap="2.455814" maxSpeed="129.166462" guiShape="passenger" />
   <vehicle id="straightE_42" type="vehicleE_42" route="edgeE_edgeW" depart="34" departLane="1" />

   <vType id="vehicleN_43" length="4.179000" accel="3.861000" decel="3.594000" sigma="0.5" minGap="2.455814" maxSpeed="129.166462" guiShape="passenger" />
   <vehicle id="uturnN_43" type="vehicleN_43" route="edgeN_edgeN" depart="35" departLane="5" />

   <vType id="vehicleS_44" length="5.190000" accel="2.690000" decel="4.672000" sigma="0.5" minGap="2.455814" maxSpeed="129.166462" guiShape="passenger" />
   <vehicle id="straightS_44" type="vehicleS_44" route="edgeS_edgeN" depart="35" departLane="1" />

   <vType id="vehicleW_45" length="4.840000" accel="3.423000" decel="5.101000" sigma="0.5" minGap="2.455814" maxSpeed="129.166462" guiShape="passenger" />
   <vehicle id="uturnW_45" type="vehicleW_45" route="edgeW_edgeW" depart="36" departLane="4" />

   <vType id="vehicleS_46" length="4.457000" accel="2.691000" decel="5.437000" sigma="0.5" minGap="2.455814" maxSpeed="129.166462" guiShape="passenger" />
   <vehicle id="straightS_46" type="vehicleS_46" route="edgeS_edgeN" depart="37" departLane="3" />

   <vType id="vehicleE_47" length="4.547000" accel="3.475000" decel="3.305000" sigma="0.5" minGap="2.455814" maxSpeed="129.166462" guiShape="passenger" />
   <vehicle id="straightE_47" type="vehicleE_47" route="edgeE_edgeW" depart="38" departLane="3" />

   <vType id="vehicleW_48" length="4.641000" accel="3.171000" decel="4.825000" sigma="0.5" minGap="2.455814" maxSpeed="129.166462" guiShape="passenger" />
   <vehicle id="straightW_48" type="vehicleW_48" route="edgeW_edgeE" depart="39" departLane="2" />

   <vType id="vehicleS_49" length="4.282000" accel="2.685000" decel="5.306000" sigma="0.5" minGap="2.455814" maxSpeed="129.166462" guiShape="passenger" />
   <vehicle id="uturnS_49" type="vehicleS_49" route="edgeS_edgeS" depart="42" departLane="5" />

   <vType id="vehicleW_50" length="5.659000" accel="3.228000" decel="5.185000" sigma="0.5" minGap="2.455814" maxSpeed="129.166462" guiShape="passenger" />
   <vehicle id="leftW_50" type="vehicleW_50" route="edgeW_edgeN" depart="42" departLane="4" />

   <vType id="vehicleS_51" length="4.759000" accel="2.565000" decel="4.830000" sigma="0.5" minGap="2.455814" maxSpeed="129.166462" guiShape="passenger" />
   <vehicle id="straightS_51" type="vehicleS_51" route="edgeS_edgeN" depart="43" departLane="1" />

   <vType id="vehicleN_52" length="4.705000" accel="3.083000" decel="4.522000" sigma="0.5" minGap="2.455814" maxSpeed="129.166462" guiShape="passenger" />
   <vehicle id="leftN_52" type="vehicleN_52" route="edgeN_edgeE" depart="46" departLane="5" />

   <vType id="vehicleE_53" length="5.023000" accel="3.506000" decel="4.403000" sigma="0.5" minGap="2.455814" maxSpeed="129.166462" guiShape="passenger" />
   <vehicle id="leftE_53" type="vehicleE_53" route="edgeE_edgeS" depart="48" departLane="3" />

   <vType id="vehicleS_54" length="4.350000" accel="2.701000" decel="4.463000" sigma="0.5" minGap="2.455814" maxSpeed="129.166462" guiShape="passenger" />
   <vehicle id="straightS_54" type="vehicleS_54" route="edgeS_edgeN" depart="49" departLane="2" />

   <vType id="vehicleW_55" length="4.131000" accel="2.510000" decel="4.067000" sigma="0.5" minGap="2.455814" maxSpeed="129.166462" guiShape="passenger" />
   <vehicle id="straightW_55" type="vehicleW_55" route="edgeW_edgeE" depart="49" departLane="2" />

   <vType id="vehicleS_56" length="5.514000" accel="3.178000" decel="4.954000" sigma="0.5" minGap="2.455814" maxSpeed="129.166462" guiShape="passenger" />
   <vehicle id="straightS_56" type="vehicleS_56" route="edgeS_edgeN" depart="50" departLane="4" />

   <vType id="vehicleW_57" length="5.444000" accel="2.452000" decel="3.577000" sigma="0.5" minGap="2.455814" maxSpeed="129.166462" guiShape="passenger" />
   <vehicle id="straightW_57" type="vehicleW_57" route="edgeW_edgeE" depart="56" departLane="2" />

   <vType id="vehicleE_58" length="5.250000" accel="2.809000" decel="5.133000" sigma="0.5" minGap="2.455814" maxSpeed="129.166462" guiShape="passenger" />
   <vehicle id="straightE_58" type="vehicleE_58" route="edgeE_edgeW" depart="56" departLane="2" />

   <vType id="vehicleS_59" length="4.842000" accel="3.929000" decel="3.861000" sigma="0.5" minGap="2.455814" maxSpeed="129.166462" guiShape="passenger" />
   <vehicle id="leftS_59" type="vehicleS_59" route="edgeS_edgeW" depart="57" departLane="5" />

   <vType id="vehicleE_60" length="4.083000" accel="3.333000" decel="4.538000" sigma="0.5" minGap="2.455814" maxSpeed="129.166462" guiShape="passenger" />
   <vehicle id="leftE_60" type="vehicleE_60" route="edgeE_edgeS" depart="58" departLane="3" />

   <vType id="vehicleS_61" length="4.964000" accel="3.864000" decel="5.027000" sigma="0.5" minGap="2.455814" maxSpeed="129.166462" guiShape="passenger" />
   <vehicle id="straightS_61" type="vehicleS_61" route="edgeS_edgeN" depart="59" departLane="2" />

   <vType id="vehicleE_62" length="4.424000" accel="3.347000" decel="5.785000" sigma="0.5" minGap="2.455814" maxSpeed="129.166462" guiShape="passenger" />
   <vehicle id="leftE_62" type="vehicleE_62" route="edgeE_edgeS" depart="59" departLane="4" />

   <vType id="vehicleS_63" length="5.377000" accel="2.563000" decel="4.960000" sigma="0.5" minGap="2.455814" maxSpeed="129.166462" guiShape="passenger" />
   <vehicle id="straightS_63" type="vehicleS_63" route="edgeS_edgeN" depart="60" departLane="3" />

   <vType id="vehicleN_64" length="5.289000" accel="2.751000" decel="4.109000" sigma="0.5" minGap="2.455814" maxSpeed="129.166462" guiShape="passenger" />
   <vehicle id="uturnN_64" type="vehicleN_64" route="edgeN_edgeN" depart="61" departLane="5" />

   <vType id="vehicleE_65" length="5.362000" accel="2.315000" decel="5.794000" sigma="0.5" minGap="2.455814" maxSpeed="129.166462" guiShape="passenger" />
   <vehicle id="straightE_65" type="vehicleE_65" route="edgeE_edgeW" depart="61" departLane="3" />

   <vType id="vehicleW_66" length="4.810000" accel="3.298000" decel="4.703000" sigma="0.5" minGap="2.455814" maxSpeed="129.166462" guiShape="passenger" />
   <vehicle id="leftW_66" type="vehicleW_66" route="edgeW_edgeN" depart="62" departLane="4" />

   <vType id="vehicleE_67" length="4.363000" accel="2.938000" decel="5.128000" sigma="0.5" minGap="2.455814" maxSpeed="129.166462" guiShape="passenger" />
   <vehicle id="uturnE_67" type="vehicleE_67" route="edgeE_edgeE" depart="63" departLane="4" />

   <vType id="vehicleE_68" length="4.946000" accel="3.713000" decel="4.512000" sigma="0.5" minGap="2.455814" maxSpeed="129.166462" guiShape="passenger" />
   <vehicle id="straightE_68" type="vehicleE_68" route="edgeE_edgeW" depart="65" departLane="3" />

   <vType id="vehicleS_69" length="4.749000" accel="3.493000" decel="4.939000" sigma="0.5" minGap="2.455814" maxSpeed="129.166462" guiShape="passenger" />
   <vehicle id="straightS_69" type="vehicleS_69" route="edgeS_edgeN" depart="66" departLane="4" />

   <vType id="vehicleE_70" length="4.594000" accel="2.563000" decel="4.855000" sigma="0.5" minGap="2.455814" maxSpeed="129.166462" guiShape="passenger" />
   <vehicle id="straightE_70" type="vehicleE_70" route="edgeE_edgeW" depart="66" departLane="2" />

   <vType id="vehicleE_71" length="4.205000" accel="2.340000" decel="4.449000" sigma="0.5" minGap="2.455814" maxSpeed="129.166462" guiShape="passenger" />
   <vehicle id="leftE_71" type="vehicleE_71" route="edgeE_edgeS" depart="68" departLane="3" />

   <vType id="vehicleN_72" length="4.359000" accel="3.188000" decel="5.159000" sigma="0.5" minGap="2.455814" maxSpeed="129.166462" guiShape="passenger" />
   <vehicle id="straightN_72" type="vehicleN_72" route="edgeN_edgeS" depart="69" departLane="3" />

   <vType id="vehicleE_73" length="4.406000" accel="3.402000" decel="3.155000" sigma="0.5" minGap="2.455814" maxSpeed="129.166462" guiShape="passenger" />
   <vehicle id="straightE_73" type="vehicleE_73" route="edgeE_edgeW" depart="69" departLane="1" />

   <vType id="vehicleE_74" length="4.753000" accel="3.699000" decel="4.570000" sigma="0.5" minGap="2.455814" maxSpeed="129.166462" guiShape="passenger" />
   <vehicle id="straightE_74" type="vehicleE_74" route="edgeE_edgeW" depart="70" departLane="2" />

   <vType id="vehicleE_75" length="4.060000" accel="2.242000" decel="4.310000" sigma="0.5" minGap="2.455814" maxSpeed="129.166462" guiShape="passenger" />
   <vehicle id="straightE_75" type="vehicleE_75" route="edgeE_edgeW" depart="71" departLane="3" />

   <vType id="vehicleS_76" length="4.885000" accel="2.673000" decel="5.898000" sigma="0.5" minGap="2.455814" maxSpeed="129.166462" guiShape="passenger" />
   <vehicle id="leftS_76" type="vehicleS_76" route="edgeS_edgeW" depart="72" departLane="5" />

   <vType id="vehicleS_77" length="4.033000" accel="3.501000" decel="4.733000" sigma="0.5" minGap="2.455814" maxSpeed="129.166462" guiShape="passenger" />
   <vehicle id="uturnS_77" type="vehicleS_77" route="edgeS_edgeS" depart="75" departLane="5" />

   <vType id="vehicleE_78" length="4.865000" accel="2.407000" decel="4.047000" sigma="0.5" minGap="2.455814" maxSpeed="129.166462" guiShape="passenger" />
   <vehicle id="leftE_78" type="vehicleE_78" route="edgeE_edgeS" depart="75" departLane="4" />

   <vType id="vehicleS_79" length="5.143000" accel="2.944000" decel="4.929000" sigma="0.5" minGap="2.455814" maxSpeed="129.166462" guiShape="passenger" />
   <vehicle id="straightS_79" type="vehicleS_79" route="edgeS_edgeN" depart="76" departLane="3" />

   <vType id="vehicleE_80" length="4.416000" accel="3.476000" decel="4.555000" sigma="0.5" minGap="2.455814" maxSpeed="129.166462" guiShape="passenger" />
   <vehicle id="leftE_80" type="vehicleE_80" route="edgeE_edgeS" depart="78" departLane="4" />

   <vType id="vehicleE_81" length="5.090000" accel="3.677000" decel="4.612000" sigma="0.5" minGap="2.455814" maxSpeed="129.166462" guiShape="passenger" />
   <vehicle id="leftE_81" type="vehicleE_81" route="edgeE_edgeS" depart="81" departLane="3" />

   <vType id="vehicleE_82" length="4.715000" accel="3.300000" decel="5.652000" sigma="0.5" minGap="2.455814" maxSpeed="129.166462" guiShape="passenger" />
   <vehicle id="straightE_82" type="vehicleE_82" route="edgeE_edgeW" depart="82" departLane="1" />

   <vType id="vehicleE_83" length="4.607000" accel="3.019000" decel="4.850000" sigma="0.5" minGap="2.455814" maxSpeed="129.166462" guiShape="passenger" />
   <vehicle id="leftE_83" type="vehicleE_83" route="edgeE_edgeS" depart="84" departLane="4" />

   <vType id="vehicleE_84" length="5.634000" accel="2.854000" decel="4.382000" sigma="0.5" minGap="2.455814" maxSpeed="129.166462" guiShape="passenger" />
   <vehicle id="straightE_84" type="vehicleE_84" route="edgeE_edgeW" depart="85" departLane="1" />

   <vType id="vehicleE_85" length="5.241000" accel="3.253000" decel="5.158000" sigma="0.5" minGap="2.455814" maxSpeed="129.166462" guiShape="passenger" />
   <vehicle id="straightE_85" type="vehicleE_85" route="edgeE_edgeW" depart="86" departLane="1" />

   <vType id="vehicleS_86" length="5.470000" accel="2.999000" decel="2.846000" sigma="0.5" minGap="2.455814" maxSpeed="129.166462" guiShape="passenger" />
   <vehicle id="straightS_86" type="vehicleS_86" route="edgeS_edgeN" depart="87" departLane="2" />

   <vType id="vehicleE_87" length="4.600000" accel="2.530000" decel="5.416000" sigma="0.5" minGap="2.455814" maxSpeed="129.166462" guiShape="passenger" />
   <vehicle id="leftE_87" type="vehicleE_87" route="edgeE_edgeS" depart="87" departLane="3" />

   <vType id="vehicleS_88" length="4.767000" accel="3.418000" decel="4.364000" sigma="0.5" minGap="2.455814" maxSpeed="129.166462" guiShape="passenger" />
   <vehicle id="straightS_88" type="vehicleS_88" route="edgeS_edgeN" depart="88" departLane="3" />

   <vType id="vehicleW_89" length="4.952000" accel="3.471000" decel="3.186000" sigma="0.5" minGap="2.455814" maxSpeed="129.166462" guiShape="passenger" />
   <vehicle id="leftW_89" type="vehicleW_89" route="edgeW_edgeN" depart="89" departLane="3" />

   <vType id="vehicleE_90" length="4.613000" accel="3.810000" decel="4.360000" sigma="0.5" minGap="2.455814" maxSpeed="129.166462" guiShape="passenger" />
   <vehicle id="straightE_90" type="vehicleE_90" route="edgeE_edgeW" depart="89" departLane="1" />

   <vType id="vehicleS_91" length="4.485000" accel="3.120000" decel="4.473000" sigma="0.5" minGap="2.455814" maxSpeed="129.166462" guiShape="passenger" />
   <vehicle id="straightS_91" type="vehicleS_91" route="edgeS_edgeN" depart="91" departLane="4" />

   <vType id="vehicleS_92" length="5.424000" accel="2.866000" decel="3.761000" sigma="0.5" minGap="2.455814" maxSpeed="129.166462" guiShape="passenger" />
   <vehicle id="straightS_92" type="vehicleS_92" route="edgeS_edgeN" depart="92" departLane="4" />

   <vType id="vehicleS_93" length="4.935000" accel="3.694000" decel="5.520000" sigma="0.5" minGap="2.455814" maxSpeed="129.166462" guiShape="passenger" />
   <vehicle id="straightS_93" type="vehicleS_93" route="edgeS_edgeN" depart="94" departLane="4" />

   <vType id="vehicleW_94" length="3.879000" accel="2.385000" decel="5.509000" sigma="0.5" minGap="2.455814" maxSpeed="129.166462" guiShape="passenger" />
   <vehicle id="uturnW_94" type="vehicleW_94" route="edgeW_edgeW" depart="94" departLane="4" />

   <vType id="vehicleN_95" length="4.338000" accel="3.249000" decel="4.012000" sigma="0.5" minGap="2.455814" maxSpeed="129.166462" guiShape="passenger" />
   <vehicle id="straightN_95" type="vehicleN_95" route="edgeN_edgeS" depart="95" departLane="1" />

   <vType id="vehicleS_96" length="5.011000" accel="3.786000" decel="5.910000" sigma="0.5" minGap="2.455814" maxSpeed="129.166462" guiShape="passenger" />
   <vehicle id="leftS_96" type="vehicleS_96" route="edgeS_edgeW" depart="97" departLane="5" />

   <vType id="vehicleE_97" length="5.454000" accel="2.925000" decel="4.950000" sigma="0.5" minGap="2.455814" maxSpeed="129.166462" guiShape="passenger" />
   <vehicle id="straightE_97" type="vehicleE_97" route="edgeE_edgeW" depart="97" departLane="1" />

   <vType id="vehicleN_98" length="4.390000" accel="2.801000" decel="3.215000" sigma="0.5" minGap="2.455814" maxSpeed="129.166462" guiShape="passenger" />
   <vehicle id="straightN_98" type="vehicleN_98" route="edgeN_edgeS" depart="98" departLane="4" />

   <vType id="vehicleE_99" length="5.451000" accel="3.243000" decel="3.516000" sigma="0.5" minGap="2.455814" maxSpeed="129.166462" guiShape="passenger" />
   <vehicle id="leftE_99" type="vehicleE_99" route="edgeE_edgeS" depart="98" departLane="3" />

   <vType id="vehicleN_100" length="5.666000" accel="2.664000" decel="5.798000" sigma="0.5" minGap="2.455814" maxSpeed="129.166462" guiShape="passenger" />
   <vehicle id="uturnN_100" type="vehicleN_100" route="edgeN_edgeN" depart="101" departLane="5" />

   <vType id="vehicleE_101" length="5.419000" accel="2.317000" decel="3.961000" sigma="0.5" minGap="2.455814" maxSpeed="129.166462" guiShape="passenger" />
   <vehicle id="uturnE_101" type="vehicleE_101" route="edgeE_edgeE" depart="101" departLane="4" />

   <vType id="vehicleE_102" length="4.578000" accel="2.139000" decel="5.491000" sigma="0.5" minGap="2.455814" maxSpeed="129.166462" guiShape="passenger" />
   <vehicle id="straightE_102" type="vehicleE_102" route="edgeE_edgeW" depart="102" departLane="3" />

   <vType id="vehicleS_103" length="5.239000" accel="3.509000" decel="4.908000" sigma="0.5" minGap="2.455814" maxSpeed="129.166462" guiShape="passenger" />
   <vehicle id="straightS_103" type="vehicleS_103" route="edgeS_edgeN" depart="105" departLane="2" />

   <vType id="vehicleS_104" length="5.224000" accel="2.441000" decel="3.172000" sigma="0.5" minGap="2.455814" maxSpeed="129.166462" guiShape="passenger" />
   <vehicle id="straightS_104" type="vehicleS_104" route="edgeS_edgeN" depart="107" departLane="3" />

   <vType id="vehicleS_105" length="4.736000" accel="3.580000" decel="5.116000" sigma="0.5" minGap="2.455814" maxSpeed="129.166462" guiShape="passenger" />
   <vehicle id="straightS_105" type="vehicleS_105" route="edgeS_edgeN" depart="108" departLane="3" />

   <vType id="vehicleN_106" length="4.265000" accel="3.345000" decel="4.888000" sigma="0.5" minGap="2.455814" maxSpeed="129.166462" guiShape="passenger" />
   <vehicle id="straightN_106" type="vehicleN_106" route="edgeN_edgeS" depart="109" departLane="4" />

   <vType id="vehicleE_107" length="3.876000" accel="3.093000" decel="4.193000" sigma="0.5" minGap="2.455814" maxSpeed="129.166462" guiShape="passenger" />
   <vehicle id="straightE_107" type="vehicleE_107" route="edgeE_edgeW" depart="109" departLane="3" />

   <vType id="vehicleN_108" length="3.919000" accel="3.922000" decel="3.122000" sigma="0.5" minGap="2.455814" maxSpeed="129.166462" guiShape="passenger" />
   <vehicle id="leftN_108" type="vehicleN_108" route="edgeN_edgeE" depart="114" departLane="5" />

   <vType id="vehicleW_109" length="5.083000" accel="3.466000" decel="5.747000" sigma="0.5" minGap="2.455814" maxSpeed="129.166462" guiShape="passenger" />