<?xml version="1.0" encoding="UTF-8"?>

<!-- generated on 2021-10-01 02:08:59 by Eclipse SUMO netedit Version 1.9.2
<configuration xmlns:xsi="http://www.w3.org/2001/XMLSchema-instance" xsi:noNamespaceSchemaLocation="http://sumo.dlr.de/xsd/netconvertConfiguration.xsd">

    <output>
        <output-file value="C:\Users\Thomas%20Tseng\Documents\GitHub\Traffic-Light-Project\network\traffic.net.xml"/>
    </output>

    <processing>
        <offset.disable-normalization value="true"/>
    </processing>

    <junctions>
        <no-turnarounds value="true"/>
    </junctions>

    <report>
        <aggregate-warnings value="5"/>
    </report>

</configuration>
-->

<net version="1.9" junctionCornerDetail="5" limitTurnSpeed="5.50" xmlns:xsi="http://www.w3.org/2001/XMLSchema-instance" xsi:noNamespaceSchemaLocation="http://sumo.dlr.de/xsd/net_file.xsd">

    <location netOffset="0.00,0.00" convBoundary="-500.01,-500.01,500.01,500.01" origBoundary="10000000000.00,10000000000.00,-10000000000.00,-10000000000.00" projParameter="!"/>

    <edge id=":gneJ4_0" function="internal">
        <lane id=":gneJ4_0_0" index="0" speed="6.51" length="9.03" shape="-1.60,7.20 -1.95,4.75 -3.00,3.00 -4.75,1.95 -7.20,1.60"/>
    </edge>
    <edge id=":gneJ4_1" function="internal">
        <lane id=":gneJ4_1_0" index="0" speed="13.89" length="14.40" shape="-1.60,7.20 -1.60,-7.20"/>
    </edge>
    <edge id=":gneJ4_2" function="internal">
        <lane id=":gneJ4_2_0" index="0" speed="8.00" length="5.93" shape="-1.60,7.20 -1.05,3.35 -0.00,1.60"/>
    </edge>
    <edge id=":gneJ4_12" function="internal">
        <lane id=":gneJ4_12_0" index="0" speed="8.00" length="8.26" shape="-0.00,1.60 0.60,0.60 3.35,-1.05 7.20,-1.60"/>
    </edge>
    <edge id=":gneJ4_3" function="internal">
        <lane id=":gneJ4_3_0" index="0" speed="6.51" length="9.03" shape="7.20,1.60 4.75,1.95 3.00,3.00 1.95,4.75 1.60,7.20"/>
    </edge>
    <edge id=":gneJ4_4" function="internal">
        <lane id=":gneJ4_4_0" index="0" speed="13.89" length="14.40" shape="7.20,1.60 -7.20,1.60"/>
    </edge>
    <edge id=":gneJ4_5" function="internal">
        <lane id=":gneJ4_5_0" index="0" speed="8.00" length="14.19" shape="7.20,1.60 3.35,1.05 0.60,-0.60 -1.05,-3.35 -1.60,-7.20"/>
    </edge>
    <edge id=":gneJ4_6" function="internal">
        <lane id=":gneJ4_6_0" index="0" speed="6.51" length="9.03" shape="1.60,-7.20 1.95,-4.75 3.00,-3.00 4.75,-1.95 7.20,-1.60"/>
    </edge>
    <edge id=":gneJ4_7" function="internal">
        <lane id=":gneJ4_7_0" index="0" speed="13.89" length="14.40" shape="1.60,-7.20 1.60,7.20"/>
    </edge>
    <edge id=":gneJ4_8" function="internal">
        <lane id=":gneJ4_8_0" index="0" speed="8.00" length="5.93" shape="1.60,-7.20 1.05,-3.35 0.00,-1.60"/>
    </edge>
    <edge id=":gneJ4_13" function="internal">
        <lane id=":gneJ4_13_0" index="0" speed="8.00" length="8.26" shape="0.00,-1.60 -0.60,-0.60 -3.35,1.05 -7.20,1.60"/>
    </edge>
    <edge id=":gneJ4_9" function="internal">
        <lane id=":gneJ4_9_0" index="0" speed="6.51" length="9.03" shape="-7.20,-1.60 -4.75,-1.95 -3.00,-3.00 -1.95,-4.75 -1.60,-7.20"/>
    </edge>
    <edge id=":gneJ4_10" function="internal">
        <lane id=":gneJ4_10_0" index="0" speed="13.89" length="14.40" shape="-7.20,-1.60 7.20,-1.60"/>
    </edge>
    <edge id=":gneJ4_11" function="internal">
        <lane id=":gneJ4_11_0" index="0" speed="8.00" length="14.19" shape="-7.20,-1.60 -3.35,-1.05 -0.60,0.60 1.05,3.35 1.60,7.20"/>
    </edge>

    <edge id="-gneE1" from="gneJ5" to="gneJ4" priority="-1" spreadType="center" shape="-1.60,500.01 -1.60,0.00">
        <lane id="-gneE1_0" index="0" speed="13.89" length="492.81" shape="-1.60,500.01 -1.60,7.20"/>
    </edge>
    <edge id="-gneE2" from="gneJ6" to="gneJ4" priority="-1" spreadType="center" shape="1.60,-500.01 1.60,0.00">
        <lane id="-gneE2_0" index="0" speed="13.89" length="492.81" shape="1.60,-500.01 1.60,-7.20"/>
    </edge>
    <edge id="-gneE3" from="gneJ7" to="gneJ4" priority="-1" spreadType="center" shape="-500.01,-1.60 0.00,-1.60">
        <lane id="-gneE3_0" index="0" speed="13.89" length="492.81" shape="-500.01,-1.60 -7.20,-1.60"/>
    </edge>
    <edge id="-gneE4" from="gneJ8" to="gneJ4" priority="-1" spreadType="center" shape="500.01,1.60 0.00,1.60">
        <lane id="-gneE4_0" index="0" speed="13.89" length="492.81" shape="500.01,1.60 7.20,1.60"/>
    </edge>
    <edge id="gneE1" from="gneJ4" to="gneJ5" priority="-1" spreadType="center" shape="1.60,0.00 1.60,500.01">
        <lane id="gneE1_0" index="0" speed="13.89" length="492.81" shape="1.60,7.20 1.60,500.01"/>
    </edge>
    <edge id="gneE2" from="gneJ4" to="gneJ6" priority="-1" spreadType="center" shape="-1.60,0.00 -1.60,-500.01">
        <lane id="gneE2_0" index="0" speed="13.89" length="492.81" shape="-1.60,-7.20 -1.60,-500.01"/>
    </edge>
    <edge id="gneE3" from="gneJ4" to="gneJ7" priority="-1" spreadType="center" shape="0.00,1.60 -500.01,1.60">
        <lane id="gneE3_0" index="0" speed="13.89" length="492.81" shape="-7.20,1.60 -500.01,1.60"/>
    </edge>
    <edge id="gneE4" from="gneJ4" to="gneJ8" priority="-1" spreadType="center" shape="0.00,-1.60 500.01,-1.60">
        <lane id="gneE4_0" index="0" speed="13.89" length="492.81" shape="7.20,-1.60 500.01,-1.60"/>
    </edge>

    <junction id="gneJ4" type="priority" x="0.00" y="0.00" incLanes="-gneE1_0 -gneE4_0 -gneE2_0 -gneE3_0" intLanes=":gneJ4_0_0 :gneJ4_1_0 :gneJ4_12_0 :gneJ4_3_0 :gneJ4_4_0 :gneJ4_5_0 :gneJ4_6_0 :gneJ4_7_0 :gneJ4_13_0 :gneJ4_9_0 :gneJ4_10_0 :gneJ4_11_0" shape="-3.20,7.20 3.20,7.20 3.64,4.98 4.20,4.20 4.98,3.64 5.98,3.31 7.20,3.20 7.20,-3.20 4.98,-3.64 4.20,-4.20 3.64,-4.98 3.31,-5.98 3.20,-7.20 -3.20,-7.20 -3.64,-4.98 -4.20,-4.20 -4.98,-3.64 -5.98,-3.31 -7.20,-3.20 -7.20,3.20 -4.98,3.64 -4.20,4.20 -3.64,4.98 -3.31,5.98">
        <request index="0"  response="000000000000" foes="000100010000" cont="0"/>
        <request index="1"  response="000000000000" foes="111100110000" cont="0"/>
        <request index="2"  response="000011000000" foes="110011110000" cont="1"/>
        <request index="3"  response="000010000000" foes="100010000000" cont="0"/>
        <request index="4"  response="000110000111" foes="100110000111" cont="0"/>
        <request index="5"  response="011110000110" foes="011110000110" cont="0"/>
        <request index="6"  response="000000000000" foes="010000000100" cont="0"/>
        <request index="7"  response="000000000000" foes="110000111100" cont="0"/>
        <request index="8"  response="000000000011" foes="110000110011" cont="1"/>
        <request index="9"  response="000000000010" foes="000000100010" cont="0"/>
        <request index="10" response="000111000110" foes="000111100110" cont="0"/>
        <request index="11" response="000110011110" foes="000110011110" cont="0"/>
    </junction>
    <junction id="gneJ5" type="dead_end" x="0.00" y="500.00" incLanes="gneE1_0" intLanes="" shape="0.00,500.00 3.20,500.00 -0.00,500.00"/>
    <junction id="gneJ6" type="dead_end" x="0.00" y="-500.00" incLanes="gneE2_0" intLanes="" shape="-0.00,-500.00 -3.20,-500.00 0.00,-500.00"/>
    <junction id="gneJ7" type="dead_end" x="-500.00" y="0.00" incLanes="gneE3_0" intLanes="" shape="-500.00,0.00 -500.00,3.20 -500.00,-0.00"/>
    <junction id="gneJ8" type="dead_end" x="500.00" y="0.00" incLanes="gneE4_0" intLanes="" shape="500.00,-0.00 500.00,-3.20 500.00,0.00"/>

    <junction id=":gneJ4_12_0" type="internal" x="-0.00" y="1.60" incLanes=":gneJ4_2_0 -gneE2_0" intLanes=":gneJ4_4_0 :gneJ4_5_0 :gneJ4_6_0 :gneJ4_7_0 :gneJ4_10_0 :gneJ4_11_0"/>
    <junction id=":gneJ4_13_0" type="internal" x="0.00" y="-1.60" incLanes=":gneJ4_8_0 -gneE1_0" intLanes=":gneJ4_0_0 :gneJ4_1_0 :gneJ4_4_0 :gneJ4_5_0 :gneJ4_10_0 :gneJ4_11_0"/>

    <connection from="-gneE1" to="gneE3" fromLane="0" toLane="0" via=":gneJ4_0_0" dir="r" state="M"/>
    <connection from="-gneE1" to="gneE2" fromLane="0" toLane="0" via=":gneJ4_1_0" dir="s" state="M"/>
    <connection from="-gneE1" to="gneE4" fromLane="0" toLane="0" via=":gneJ4_2_0" dir="l" state="m"/>
    <connection from="-gneE2" to="gneE4" fromLane="0" toLane="0" via=":gneJ4_6_0" dir="r" state="M"/>
    <connection from="-gneE2" to="gneE1" fromLane="0" toLane="0" via=":gneJ4_7_0" dir="s" state="M"/>
    <connection from="-gneE2" to="gneE3" fromLane="0" toLane="0" via=":gneJ4_8_0" dir="l" state="m"/>
    <connection from="-gneE3" to="gneE2" fromLane="0" toLane="0" via=":gneJ4_9_0" dir="r" state="m"/>
    <connection from="-gneE3" to="gneE4" fromLane="0" toLane="0" via=":gneJ4_10_0" dir="s" state="m"/>
    <connection from="-gneE3" to="gneE1" fromLane="0" toLane="0" via=":gneJ4_11_0" dir="l" state="m"/>
    <connection from="-gneE4" to="gneE1" fromLane="0" toLane="0" via=":gneJ4_3_0" dir="r" state="m"/>
    <connection from="-gneE4" to="gneE3" fromLane="0" toLane="0" via=":gneJ4_4_0" dir="s" state="m"/>
    <connection from="-gneE4" to="gneE2" fromLane="0" toLane="0" via=":gneJ4_5_0" dir="l" state="m"/>

    <connection from=":gneJ4_0" to="gneE3" fromLane="0" toLane="0" dir="r" state="M"/>
    <connection from=":gneJ4_1" to="gneE2" fromLane="0" toLane="0" dir="s" state="M"/>
    <connection from=":gneJ4_2" to="gneE4" fromLane="0" toLane="0" via=":gneJ4_12_0" dir="l" state="m"/>
    <connection from=":gneJ4_12" to="gneE4" fromLane="0" toLane="0" dir="l" state="M"/>
    <connection from=":gneJ4_3" to="gneE1" fromLane="0" toLane="0" dir="r" state="M"/>
    <connection from=":gneJ4_4" to="gneE3" fromLane="0" toLane="0" dir="s" state="M"/>
    <connection from=":gneJ4_5" to="gneE2" fromLane="0" toLane="0" dir="l" state="M"/>
    <connection from=":gneJ4_6" to="gneE4" fromLane="0" toLane="0" dir="r" state="M"/>
    <connection from=":gneJ4_7" to="gneE1" fromLane="0" toLane="0" dir="s" state="M"/>
    <connection from=":gneJ4_8" to="gneE3" fromLane="0" toLane="0" via=":gneJ4_13_0" dir="l" state="m"/>
    <connection from=":gneJ4_13" to="gneE3" fromLane="0" toLane="0" dir="l" state="M"/>
    <connection from=":gneJ4_9" to="gneE2" fromLane="0" toLane="0" dir="r" state="M"/>
    <connection from=":gneJ4_10" to="gneE4" fromLane="0" toLane="0" dir="s" state="M"/>
    <connection from=":gneJ4_11" to="gneE1" fromLane="0" toLane="0" dir="l" state="M"/>

</net>
