<?xml version="1.0" encoding="UTF-8"?>

<!-- generated on 2021-10-23 05:40:45 by Eclipse SUMO netconvert Version 1.10.0
<configuration xmlns:xsi="http://www.w3.org/2001/XMLSchema-instance" xsi:noNamespaceSchemaLocation="http://sumo.dlr.de/xsd/netconvertConfiguration.xsd">

    <input>
        <node-files value="data7/cross.nod.xml"/>
        <edge-files value="data7/cross.edg.xml"/>
        <connection-files value="data7/cross.con.xml"/>
    </input>

    <output>
        <output-file value="data7/cross.net.xml"/>
    </output>

    <junctions>
        <no-turnarounds.except-turnlane value="true"/>
    </junctions>

    <report>
        <aggregate-warnings value="5"/>
    </report>

</configuration>
-->

<net version="1.9" junctionCornerDetail="5" limitTurnSpeed="5.50" xmlns:xsi="http://www.w3.org/2001/XMLSchema-instance" xsi:noNamespaceSchemaLocation="http://sumo.dlr.de/xsd/net_file.xsd">

    <location netOffset="300.00,600.00" convBoundary="0.00,0.00,1100.00,1000.00" origBoundary="-300.00,-600.00,800.00,400.00" projParameter="!"/>

    <edge id=":juncE_0" function="internal">
        <lane id=":juncE_0_0" index="0" disallow="pedestrian" speed="3.65" length="4.67" shape="1100.00,598.40 1101.20,599.20 1101.60,600.00 1101.20,600.80 1100.00,601.60"/>
    </edge>
    <edge id=":juncE_w0" function="walkingarea">
        <lane id=":juncE_w0_0" index="0" allow="pedestrian" speed="1.00" length="22.40" width="3.20" shape="1100.00,609.60 1100.00,612.80 1100.00,587.20 1100.00,590.40"/>
    </edge>
    <edge id=":juncMain_0" function="internal">
        <lane id=":juncMain_0_0" index="0" disallow="pedestrian" speed="6.86" length="5.34" shape="279.20,614.30 278.81,611.54 277.62,609.58 277.40,609.44"/>
        <lane id=":juncMain_0_1" index="1" disallow="pedestrian" speed="7.64" length="7.67" shape="279.20,614.30 278.81,610.14 277.62,607.17 277.40,606.97"/>
        <lane id=":juncMain_0_2" index="2" disallow="pedestrian" speed="7.64" length="8.30" shape="282.40,614.30 281.81,611.54 280.02,609.58 277.40,608.53"/>
        <lane id=":juncMain_0_3" index="3" disallow="pedestrian" speed="8.29" length="10.72" shape="282.40,614.30 281.81,610.14 280.02,607.17 277.40,605.60"/>
    </edge>
    <edge id=":juncMain_4" function="internal">
        <lane id=":juncMain_4_0" index="0" disallow="pedestrian" speed="19.31" length="28.60" shape="282.40,614.30 282.40,585.70"/>
        <lane id=":juncMain_4_1" index="1" disallow="pedestrian" speed="19.31" length="28.60" shape="285.60,614.30 285.60,585.70"/>
        <lane id=":juncMain_4_2" index="2" disallow="pedestrian" speed="19.31" length="28.60" shape="288.80,614.30 288.80,585.70"/>
        <lane id=":juncMain_4_3" index="3" disallow="pedestrian" speed="19.31" length="28.60" shape="292.00,614.30 292.00,585.70"/>
        <lane id=":juncMain_4_4" index="4" disallow="pedestrian" speed="19.31" length="28.60" shape="295.20,614.30 295.20,585.70"/>
    </edge>
    <edge id=":juncMain_9" function="internal">
        <lane id=":juncMain_9_0" index="0" disallow="pedestrian" speed="13.04" length="15.01" shape="295.20,614.30 297.19,607.34 303.17,602.38"/>
        <lane id=":juncMain_9_1" index="1" disallow="pedestrian" speed="12.57" length="11.28" shape="298.40,614.30 300.19,607.34 303.20,604.57"/>
    </edge>
    <edge id=":juncMain_11" function="internal">
        <lane id=":juncMain_11_0" index="0" disallow="pedestrian" speed="3.65" length="2.34" shape="298.40,614.30 299.20,613.10 300.00,612.70"/>
    </edge>
    <edge id=":juncMain_36" function="internal">
        <lane id=":juncMain_36_0" index="0" disallow="pedestrian" speed="6.86" length="4.82" shape="277.40,609.44 275.66,608.39 272.90,608.00"/>
    </edge>
    <edge id=":juncMain_37" function="internal">
        <lane id=":juncMain_37_0" index="0" disallow="pedestrian" speed="7.64" length="5.17" shape="277.40,606.97 275.66,605.39 272.90,604.80"/>
    </edge>
    <edge id=":juncMain_38" function="internal">
        <lane id=":juncMain_38_0" index="0" disallow="pedestrian" speed="7.64" length="4.54" shape="277.40,608.53 277.06,608.39 272.90,608.00"/>
    </edge>
    <edge id=":juncMain_39" function="internal">
        <lane id=":juncMain_39_0" index="0" disallow="pedestrian" speed="8.29" length="4.60" shape="277.40,605.60 277.06,605.39 272.90,604.80"/>
    </edge>
    <edge id=":juncMain_40" function="internal">
        <lane id=":juncMain_40_0" index="0" disallow="pedestrian" speed="13.04" length="24.40" shape="303.17,602.38 313.14,599.39 327.10,598.40"/>
    </edge>
    <edge id=":juncMain_41" function="internal">
        <lane id=":juncMain_41_0" index="0" disallow="pedestrian" speed="12.57" length="25.28" shape="303.20,604.57 305.57,602.38 314.54,599.39 327.10,598.40"/>
    </edge>
    <edge id=":juncMain_42" function="internal">
        <lane id=":juncMain_42_0" index="0" disallow="pedestrian" speed="3.65" length="2.34" shape="300.00,612.70 300.80,613.10 301.60,614.30"/>
    </edge>
    <edge id=":juncMain_12" function="internal">
        <lane id=":juncMain_12_0" index="0" disallow="pedestrian" speed="6.86" length="5.34" shape="327.10,608.00 324.34,608.39 322.38,609.58 322.24,609.80"/>
    </edge>
    <edge id=":juncMain_13" function="internal">
        <lane id=":juncMain_13_0" index="0" disallow="pedestrian" speed="14.60" length="54.20" shape="327.10,604.80 272.90,604.80"/>
        <lane id=":juncMain_13_1" index="1" disallow="pedestrian" speed="14.60" length="54.20" shape="327.10,601.60 272.90,601.60"/>
    </edge>
    <edge id=":juncMain_15" function="internal">
        <lane id=":juncMain_15_0" index="0" disallow="pedestrian" speed="13.04" length="16.11" shape="327.10,601.60 313.14,600.61 311.12,600.00"/>
        <lane id=":juncMain_15_1" index="1" disallow="pedestrian" speed="12.57" length="14.52" shape="327.10,601.60 314.54,600.61 312.72,600.00"/>
    </edge>
    <edge id=":juncMain_17" function="internal">
        <lane id=":juncMain_17_0" index="0" disallow="pedestrian" speed="3.65" length="2.34" shape="327.10,601.60 325.90,600.80 325.50,600.00"/>
    </edge>
    <edge id=":juncMain_43" function="internal">
        <lane id=":juncMain_43_0" index="0" disallow="pedestrian" speed="6.86" length="4.82" shape="322.24,609.80 321.19,611.54 320.80,614.30"/>
    </edge>
    <edge id=":juncMain_44" function="internal">
        <lane id=":juncMain_44_0" index="0" disallow="pedestrian" speed="13.04" length="23.30" shape="311.12,600.00 303.18,597.62 297.19,592.66 295.20,585.70"/>
    </edge>
    <edge id=":juncMain_45" function="internal">
        <lane id=":juncMain_45_0" index="0" disallow="pedestrian" speed="12.57" length="22.04" shape="312.72,600.00 305.57,597.62 300.19,592.66 298.40,585.70"/>
    </edge>
    <edge id=":juncMain_46" function="internal">
        <lane id=":juncMain_46_0" index="0" disallow="pedestrian" speed="3.65" length="2.34" shape="325.50,600.00 325.90,599.20 327.10,598.40"/>
    </edge>
    <edge id=":juncMain_18" function="internal">
        <lane id=":juncMain_18_0" index="0" disallow="pedestrian" speed="6.86" length="5.34" shape="320.80,585.70 321.19,588.46 322.38,590.42 322.60,590.56"/>
        <lane id=":juncMain_18_1" index="1" disallow="pedestrian" speed="7.64" length="7.67" shape="320.80,585.70 321.19,589.86 322.38,592.83 322.60,593.03"/>
        <lane id=":juncMain_18_2" index="2" disallow="pedestrian" speed="7.64" length="8.30" shape="317.60,585.70 318.19,588.46 319.98,590.42 322.60,591.47"/>
        <lane id=":juncMain_18_3" index="3" disallow="pedestrian" speed="8.29" length="10.72" shape="317.60,585.70 318.19,589.86 319.98,592.83 322.60,594.40"/>
    </edge>
    <edge id=":juncMain_22" function="internal">
        <lane id=":juncMain_22_0" index="0" disallow="pedestrian" speed="19.31" length="28.60" shape="317.60,585.70 317.60,614.30"/>
        <lane id=":juncMain_22_1" index="1" disallow="pedestrian" speed="19.31" length="28.60" shape="314.40,585.70 314.40,614.30"/>
        <lane id=":juncMain_22_2" index="2" disallow="pedestrian" speed="19.31" length="28.60" shape="311.20,585.70 311.20,614.30"/>
        <lane id=":juncMain_22_3" index="3" disallow="pedestrian" speed="19.31" length="28.60" shape="308.00,585.70 308.00,614.30"/>
        <lane id=":juncMain_22_4" index="4" disallow="pedestrian" speed="19.31" length="28.60" shape="304.80,585.70 304.80,614.30"/>
    </edge>
    <edge id=":juncMain_27" function="internal">
        <lane id=":juncMain_27_0" index="0" disallow="pedestrian" speed="13.04" length="15.01" shape="304.80,585.70 302.81,592.66 296.83,597.62"/>
        <lane id=":juncMain_27_1" index="1" disallow="pedestrian" speed="12.57" length="11.28" shape="301.60,585.70 299.81,592.66 296.80,595.43"/>
    </edge>
    <edge id=":juncMain_29" function="internal">
        <lane id=":juncMain_29_0" index="0" disallow="pedestrian" speed="3.65" length="2.34" shape="301.60,585.70 300.80,586.90 300.00,587.30"/>
    </edge>
    <edge id=":juncMain_47" function="internal">
        <lane id=":juncMain_47_0" index="0" disallow="pedestrian" speed="6.86" length="4.82" shape="322.60,590.56 324.34,591.61 327.10,592.00"/>
    </edge>
    <edge id=":juncMain_48" function="internal">
        <lane id=":juncMain_48_0" index="0" disallow="pedestrian" speed="7.64" length="5.17" shape="322.60,593.03 324.34,594.61 327.10,595.20"/>
    </edge>
    <edge id=":juncMain_49" function="internal">
        <lane id=":juncMain_49_0" index="0" disallow="pedestrian" speed="7.64" length="4.54" shape="322.60,591.47 322.94,591.61 327.10,592.00"/>
    </edge>
    <edge id=":juncMain_50" function="internal">
        <lane id=":juncMain_50_0" index="0" disallow="pedestrian" speed="8.29" length="4.60" shape="322.60,594.40 322.94,594.61 327.10,595.20"/>
    </edge>
    <edge id=":juncMain_51" function="internal">
        <lane id=":juncMain_51_0" index="0" disallow="pedestrian" speed="13.04" length="24.40" shape="296.83,597.62 286.86,600.61 272.90,601.60"/>
    </edge>
    <edge id=":juncMain_52" function="internal">
        <lane id=":juncMain_52_0" index="0" disallow="pedestrian" speed="12.57" length="25.28" shape="296.80,595.43 294.43,597.62 285.46,600.61 272.90,601.60"/>
    </edge>
    <edge id=":juncMain_53" function="internal">
        <lane id=":juncMain_53_0" index="0" disallow="pedestrian" speed="3.65" length="2.34" shape="300.00,587.30 299.20,586.90 298.40,585.70"/>
    </edge>
    <edge id=":juncMain_30" function="internal">
        <lane id=":juncMain_30_0" index="0" disallow="pedestrian" speed="6.86" length="5.34" shape="272.90,592.00 275.66,591.61 277.62,590.42 277.76,590.20"/>
    </edge>
    <edge id=":juncMain_31" function="internal">
        <lane id=":juncMain_31_0" index="0" disallow="pedestrian" speed="14.60" length="54.20" shape="272.90,595.20 327.10,595.20"/>
        <lane id=":juncMain_31_1" index="1" disallow="pedestrian" speed="14.60" length="54.20" shape="272.90,598.40 327.10,598.40"/>
    </edge>
    <edge id=":juncMain_33" function="internal">
        <lane id=":juncMain_33_0" index="0" disallow="pedestrian" speed="13.04" length="16.11" shape="272.90,598.40 286.86,599.39 288.88,600.00"/>
        <lane id=":juncMain_33_1" index="1" disallow="pedestrian" speed="12.57" length="14.52" shape="272.90,598.40 285.46,599.39 287.28,600.00"/>
    </edge>
    <edge id=":juncMain_35" function="internal">
        <lane id=":juncMain_35_0" index="0" disallow="pedestrian" speed="3.65" length="2.34" shape="272.90,598.40 274.10,599.20 274.50,600.00"/>
    </edge>
    <edge id=":juncMain_54" function="internal">
        <lane id=":juncMain_54_0" index="0" disallow="pedestrian" speed="6.86" length="4.82" shape="277.76,590.20 278.81,588.46 279.20,585.70"/>
    </edge>
    <edge id=":juncMain_55" function="internal">
        <lane id=":juncMain_55_0" index="0" disallow="pedestrian" speed="13.04" length="23.30" shape="288.88,600.00 296.82,602.38 302.81,607.34 304.80,614.30"/>
    </edge>
    <edge id=":juncMain_56" function="internal">
        <lane id=":juncMain_56_0" index="0" disallow="pedestrian" speed="12.57" length="22.04" shape="287.28,600.00 294.43,602.38 299.81,607.34 301.60,614.30"/>
    </edge>
    <edge id=":juncMain_57" function="internal">
        <lane id=":juncMain_57_0" index="0" disallow="pedestrian" speed="3.65" length="2.34" shape="274.50,600.00 274.10,600.80 272.90,601.60"/>
    </edge>
    <edge id=":juncMain_c0" function="crossing" crossingEdges="edgeN_I edgeN_O">
        <lane id=":juncMain_c0_0" index="0" allow="pedestrian" speed="1.00" length="44.80" width="4.50" shape="322.40,612.05 277.60,612.05"/>
    </edge>
    <edge id=":juncMain_c1" function="crossing" crossingEdges="edgeE_I edgeE_O">
        <lane id=":juncMain_c1_0" index="0" allow="pedestrian" speed="1.00" length="19.20" width="4.50" shape="324.85,590.40 324.85,609.60"/>
    </edge>
    <edge id=":juncMain_c2" function="crossing" crossingEdges="edgeS_I edgeS_O">
        <lane id=":juncMain_c2_0" index="0" allow="pedestrian" speed="1.00" length="44.80" width="4.50" shape="277.60,587.95 322.40,587.95"/>
    </edge>
    <edge id=":juncMain_c3" function="crossing" crossingEdges="edgeW_I edgeW_O">
        <lane id=":juncMain_c3_0" index="0" allow="pedestrian" speed="1.00" length="19.20" width="4.50" shape="275.15,609.60 275.15,590.40"/>
    </edge>
    <edge id=":juncMain_w0" function="walkingarea">
        <lane id=":juncMain_w0_0" index="0" allow="pedestrian" speed="1.00" length="3.82" width="4.50" shape="272.90,609.60 272.90,612.80 274.40,614.30 277.60,614.30 277.47,612.86 277.08,611.69 276.42,610.77 275.51,610.12 274.34,609.73"/>
    </edge>
    <edge id=":juncMain_w1" function="walkingarea">
        <lane id=":juncMain_w1_0" index="0" allow="pedestrian" speed="1.00" length="3.82" width="4.50" shape="322.40,614.30 325.60,614.30 327.10,612.80 327.10,609.60 325.66,609.73 324.49,610.12 323.58,610.78 322.92,611.69 322.53,612.86"/>
    </edge>
    <edge id=":juncMain_w2" function="walkingarea">
        <lane id=":juncMain_w2_0" index="0" allow="pedestrian" speed="1.00" length="3.82" width="4.50" shape="327.10,590.40 327.10,587.20 325.60,585.70 322.40,585.70 322.53,587.14 322.92,588.31 323.58,589.23 324.49,589.88 325.66,590.27"/>
    </edge>
    <edge id=":juncMain_w3" function="walkingarea">
        <lane id=":juncMain_w3_0" index="0" allow="pedestrian" speed="1.00" length="3.82" width="4.50" shape="277.60,585.70 274.40,585.70 272.90,587.20 272.90,590.40 274.34,590.27 275.51,589.88 276.42,589.22 277.08,588.31 277.47,587.14"/>
    </edge>
    <edge id=":juncN_0" function="internal">
        <lane id=":juncN_0_0" index="0" disallow="pedestrian" speed="3.65" length="4.67" shape="301.60,1000.00 300.80,1001.20 300.00,1001.60 299.20,1001.20 298.40,1000.00"/>
    </edge>
    <edge id=":juncN_w0" function="walkingarea">
        <lane id=":juncN_w0_0" index="0" allow="pedestrian" speed="1.00" length="48.00" width="3.20" shape="277.60,1000.00 274.40,1000.00 325.60,1000.00 322.40,1000.00"/>
    </edge>
    <edge id=":juncS_0" function="internal">
        <lane id=":juncS_0_0" index="0" disallow="pedestrian" speed="3.65" length="4.67" shape="298.40,0.00 299.20,-1.20 300.00,-1.60 300.80,-1.20 301.60,0.00"/>
    </edge>
    <edge id=":juncS_w0" function="walkingarea">
        <lane id=":juncS_w0_0" index="0" allow="pedestrian" speed="1.00" length="48.00" width="3.20" shape="322.40,0.00 325.60,0.00 274.40,0.00 277.60,0.00"/>
    </edge>
    <edge id=":juncW_0" function="internal">
        <lane id=":juncW_0_0" index="0" disallow="pedestrian" speed="3.65" length="4.67" shape="0.00,601.60 -1.20,600.80 -1.60,600.00 -1.20,599.20 0.00,598.40"/>
    </edge>
    <edge id=":juncW_w0" function="walkingarea">
        <lane id=":juncW_w0_0" index="0" allow="pedestrian" speed="1.00" length="22.40" width="3.20" shape="0.00,590.40 0.00,587.20 0.00,612.80 0.00,609.60"/>
    </edge>

    <edge id="edgeE_I" from="juncMain" to="juncE" priority="46">
        <lane id="edgeE_I_0" index="0" allow="pedestrian" speed="16.56" length="772.90" shape="327.10,588.80 1100.00,588.80"/>
        <lane id="edgeE_I_1" index="1" disallow="pedestrian" speed="16.56" length="772.90" shape="327.10,592.00 1100.00,592.00"/>
        <lane id="edgeE_I_2" index="2" disallow="pedestrian" speed="16.56" length="772.90" shape="327.10,595.20 1100.00,595.20"/>
        <lane id="edgeE_I_3" index="3" disallow="pedestrian" speed="16.56" length="772.90" shape="327.10,598.40 1100.00,598.40"/>
    </edge>
    <edge id="edgeE_O" from="juncE" to="juncMain" priority="78">
        <lane id="edgeE_O_0" index="0" allow="pedestrian" speed="12.64" length="772.90" shape="1100.00,611.20 327.10,611.20"/>
        <lane id="edgeE_O_1" index="1" disallow="pedestrian" speed="12.64" length="772.90" shape="1100.00,608.00 327.10,608.00"/>
        <lane id="edgeE_O_2" index="2" disallow="pedestrian" speed="12.64" length="772.90" shape="1100.00,604.80 327.10,604.80"/>
        <lane id="edgeE_O_3" index="3" disallow="pedestrian" speed="12.64" length="772.90" shape="1100.00,601.60 327.10,601.60"/>
    </edge>
    <edge id="edgeN_I" from="juncMain" to="juncN" priority="46">
        <lane id="edgeN_I_0" index="0" allow="pedestrian" speed="23.25" length="385.70" shape="324.00,614.30 324.00,1000.00"/>
        <lane id="edgeN_I_1" index="1" disallow="pedestrian" speed="23.25" length="385.70" shape="320.80,614.30 320.80,1000.00"/>
        <lane id="edgeN_I_2" index="2" disallow="pedestrian" speed="23.25" length="385.70" shape="317.60,614.30 317.60,1000.00"/>
        <lane id="edgeN_I_3" index="3" disallow="pedestrian" speed="23.25" length="385.70" shape="314.40,614.30 314.40,1000.00"/>
        <lane id="edgeN_I_4" index="4" disallow="pedestrian" speed="23.25" length="385.70" shape="311.20,614.30 311.20,1000.00"/>
        <lane id="edgeN_I_5" index="5" disallow="pedestrian" speed="23.25" length="385.70" shape="308.00,614.30 308.00,1000.00"/>
        <lane id="edgeN_I_6" index="6" disallow="pedestrian" speed="23.25" length="385.70" shape="304.80,614.30 304.80,1000.00"/>
        <lane id="edgeN_I_7" index="7" disallow="pedestrian" speed="23.25" length="385.70" shape="301.60,614.30 301.60,1000.00"/>
    </edge>
    <edge id="edgeN_O" from="juncN" to="juncMain" priority="78">
        <lane id="edgeN_O_0" index="0" allow="pedestrian" speed="15.36" length="385.70" shape="276.00,1000.00 276.00,614.30"/>
        <lane id="edgeN_O_1" index="1" disallow="pedestrian" speed="15.36" length="385.70" shape="279.20,1000.00 279.20,614.30"/>
        <lane id="edgeN_O_2" index="2" disallow="pedestrian" speed="15.36" length="385.70" shape="282.40,1000.00 282.40,614.30"/>
        <lane id="edgeN_O_3" index="3" disallow="pedestrian" speed="15.36" length="385.70" shape="285.60,1000.00 285.60,614.30"/>
        <lane id="edgeN_O_4" index="4" disallow="pedestrian" speed="15.36" length="385.70" shape="288.80,1000.00 288.80,614.30"/>
        <lane id="edgeN_O_5" index="5" disallow="pedestrian" speed="15.36" length="385.70" shape="292.00,1000.00 292.00,614.30"/>
        <lane id="edgeN_O_6" index="6" disallow="pedestrian" speed="15.36" length="385.70" shape="295.20,1000.00 295.20,614.30"/>
        <lane id="edgeN_O_7" index="7" disallow="pedestrian" speed="15.36" length="385.70" shape="298.40,1000.00 298.40,614.30"/>
    </edge>
    <edge id="edgeS_I" from="juncMain" to="juncS" priority="46">
        <lane id="edgeS_I_0" index="0" allow="pedestrian" speed="23.25" length="585.70" shape="276.00,585.70 276.00,0.00"/>
        <lane id="edgeS_I_1" index="1" disallow="pedestrian" speed="23.25" length="585.70" shape="279.20,585.70 279.20,0.00"/>
        <lane id="edgeS_I_2" index="2" disallow="pedestrian" speed="23.25" length="585.70" shape="282.40,585.70 282.40,0.00"/>
        <lane id="edgeS_I_3" index="3" disallow="pedestrian" speed="23.25" length="585.70" shape="285.60,585.70 285.60,0.00"/>
        <lane id="edgeS_I_4" index="4" disallow="pedestrian" speed="23.25" length="585.70" shape="288.80,585.70 288.80,0.00"/>
        <lane id="edgeS_I_5" index="5" disallow="pedestrian" speed="23.25" length="585.70" shape="292.00,585.70 292.00,0.00"/>
        <lane id="edgeS_I_6" index="6" disallow="pedestrian" speed="23.25" length="585.70" shape="295.20,585.70 295.20,0.00"/>
        <lane id="edgeS_I_7" index="7" disallow="pedestrian" speed="23.25" length="585.70" shape="298.40,585.70 298.40,0.00"/>
    </edge>
    <edge id="edgeS_O" from="juncS" to="juncMain" priority="78">
        <lane id="edgeS_O_0" index="0" allow="pedestrian" speed="15.36" length="585.70" shape="324.00,0.00 324.00,585.70"/>
        <lane id="edgeS_O_1" index="1" disallow="pedestrian" speed="15.36" length="585.70" shape="320.80,0.00 320.80,585.70"/>
        <lane id="edgeS_O_2" index="2" disallow="pedestrian" speed="15.36" length="585.70" shape="317.60,0.00 317.60,585.70"/>
        <lane id="edgeS_O_3" index="3" disallow="pedestrian" speed="15.36" length="585.70" shape="314.40,0.00 314.40,585.70"/>
        <lane id="edgeS_O_4" index="4" disallow="pedestrian" speed="15.36" length="585.70" shape="311.20,0.00 311.20,585.70"/>
        <lane id="edgeS_O_5" index="5" disallow="pedestrian" speed="15.36" length="585.70" shape="308.00,0.00 308.00,585.70"/>
        <lane id="edgeS_O_6" index="6" disallow="pedestrian" speed="15.36" length="585.70" shape="304.80,0.00 304.80,585.70"/>
        <lane id="edgeS_O_7" index="7" disallow="pedestrian" speed="15.36" length="585.70" shape="301.60,0.00 301.60,585.70"/>
    </edge>
    <edge id="edgeW_I" from="juncMain" to="juncW" priority="46">
        <lane id="edgeW_I_0" index="0" allow="pedestrian" speed="16.56" length="272.90" shape="272.90,611.20 0.00,611.20"/>
        <lane id="edgeW_I_1" index="1" disallow="pedestrian" speed="16.56" length="272.90" shape="272.90,608.00 0.00,608.00"/>
        <lane id="edgeW_I_2" index="2" disallow="pedestrian" speed="16.56" length="272.90" shape="272.90,604.80 0.00,604.80"/>
        <lane id="edgeW_I_3" index="3" disallow="pedestrian" speed="16.56" length="272.90" shape="272.90,601.60 0.00,601.60"/>
    </edge>
    <edge id="edgeW_O" from="juncW" to="juncMain" priority="78">
        <lane id="edgeW_O_0" index="0" allow="pedestrian" speed="12.64" length="272.90" shape="0.00,588.80 272.90,588.80"/>
        <lane id="edgeW_O_1" index="1" disallow="pedestrian" speed="12.64" length="272.90" shape="0.00,592.00 272.90,592.00"/>
        <lane id="edgeW_O_2" index="2" disallow="pedestrian" speed="12.64" length="272.90" shape="0.00,595.20 272.90,595.20"/>
        <lane id="edgeW_O_3" index="3" disallow="pedestrian" speed="12.64" length="272.90" shape="0.00,598.40 272.90,598.40"/>
    </edge>

    <tlLogic id="juncMain" type="static" programID="0" offset="0">
        <phase duration="33" state="ggggGGGGGgggrrrrrrggggGGGGGgggrrrrrrrGrG"/>
        <phase duration="5"  state="ggggGGGGGgggrrrrrrggggGGGGGgggrrrrrrrrrr"/>
        <phase duration="3"  state="yyyyyyyyyyggrrrrrryyyyyyyyyyggrrrrrrrrrr"/>
        <phase duration="6"  state="rrrrrrrrrrGGrrrrrrrrrrrrrrrrGGrrrrrrrrrr"/>
        <phase duration="3"  state="rrrrrrrrrryyrrrrrrrrrrrrrrrryyrrrrrrrrrr"/>
        <phase duration="32" state="rrrrrrrrrrrrgGGgggrrrrrrrrrrrrgGGgggGrGr"/>
        <phase duration="5"  state="rrrrrrrrrrrrgGGgggrrrrrrrrrrrrgGGgggrrrr"/>
        <phase duration="3"  state="rrrrrrrrrrrryyyyyyrrrrrrrrrrrryyyyyyrrrr"/>
    </tlLogic>

    <junction id="juncE" type="priority" x="1100.00" y="600.00" incLanes="edgeE_I_0 edgeE_I_1 edgeE_I_2 edgeE_I_3" intLanes=":juncE_0_0" shape="1100.00,600.00 1100.00,587.20 1100.00,600.00">
        <request index="0" response="0" foes="0" cont="0"/>
    </junction>
    <junction id="juncMain" type="traffic_light" x="300.00" y="600.00" incLanes="edgeN_O_0 edgeN_O_1 edgeN_O_2 edgeN_O_3 edgeN_O_4 edgeN_O_5 edgeN_O_6 edgeN_O_7 edgeE_O_0 edgeE_O_1 edgeE_O_2 edgeE_O_3 edgeS_O_0 edgeS_O_1 edgeS_O_2 edgeS_O_3 edgeS_O_4 edgeS_O_5 edgeS_O_6 edgeS_O_7 edgeW_O_0 edgeW_O_1 edgeW_O_2 edgeW_O_3 :juncMain_w1_0 :juncMain_w2_0 :juncMain_w3_0 :juncMain_w0_0" intLanes=":juncMain_36_0 :juncMain_37_0 :juncMain_38_0 :juncMain_39_0 :juncMain_4_0 :juncMain_4_1 :juncMain_4_2 :juncMain_4_3 :juncMain_4_4 :juncMain_40_0 :juncMain_41_0 :juncMain_42_0 :juncMain_43_0 :juncMain_13_0 :juncMain_13_1 :juncMain_44_0 :juncMain_45_0 :juncMain_46_0 :juncMain_47_0 :juncMain_48_0 :juncMain_49_0 :juncMain_50_0 :juncMain_22_0 :juncMain_22_1 :juncMain_22_2 :juncMain_22_3 :juncMain_22_4 :juncMain_51_0 :juncMain_52_0 :juncMain_53_0 :juncMain_54_0 :juncMain_31_0 :juncMain_31_1 :juncMain_55_0 :juncMain_56_0 :juncMain_57_0 :juncMain_c0_0 :juncMain_c1_0 :juncMain_c2_0 :juncMain_c3_0" shape="274.40,614.30 325.60,614.30 325.77,613.47 325.98,613.18 326.27,612.97 326.64,612.84 327.10,612.80 327.10,587.20 326.27,587.03 325.98,586.82 325.77,586.53 325.64,586.16 325.60,585.70 274.40,585.70 274.23,586.53 274.02,586.82 273.73,587.03 273.36,587.16 272.90,587.20 272.90,612.80 273.73,612.97 274.02,613.18 274.23,613.47 274.36,613.84">
        <request index="0"  response="1001000000000000000000000000000000000000" foes="1001000000000000000000000110000000000100" cont="1"/>
        <request index="1"  response="1001000000000000000000000000000000000000" foes="1001000000000000000000000110000000001000" cont="1"/>
        <request index="2"  response="1001000000000000000000000000000000000001" foes="1001000000000000000000000110000000000001" cont="1"/>
        <request index="3"  response="1001000000000000000000000000000000000010" foes="1001000000000000000000000110000000000010" cont="1"/>
        <request index="4"  response="0101011000000000000000011000000000000000" foes="0101011110011000000000011110000000000000" cont="0"/>
        <request index="5"  response="0101011000000000000000011000000000000000" foes="0101011110011000000000011110000000000000" cont="0"/>
        <request index="6"  response="0101011000000000000000011000000000000000" foes="0101011110011000000000011110000000000000" cont="0"/>
        <request index="7"  response="0101011000000000000000011000000000000000" foes="0101011110011000000000011110000000000000" cont="0"/>
        <request index="8"  response="0101011000000000000000011000000000000000" foes="0101011110011000000000011110000000000000" cont="0"/>
        <request index="9"  response="0011011000000111110000011000010000000000" foes="0011011110000111110000111110010000000000" cont="1"/>
        <request index="10" response="0011011000000111110000011000000000000000" foes="0011011110000111110000111110001000000000" cont="1"/>
        <request index="11" response="0001011000000000000000000000000000000000" foes="0001011000000000000000000000000000000000" cont="1"/>
        <request index="12" response="0011000000000000000000000000000000000000" foes="0011000000000000000000000000000000000000" cont="1"/>
        <request index="13" response="1010000000011111110000000000011111111111" foes="1010111000011111110000000000011111111111" cont="0"/>
        <request index="14" response="1010000000011111110000000000011111111111" foes="1010111000011111110000000000011111111111" cont="0"/>
        <request index="15" response="0110000110011111110000000000011111110000" foes="0110000110111111110000000000011111110000" cont="1"/>
        <request index="16" response="0110000110011111110000000000011111110000" foes="0110000110111111110000000000011111110000" cont="1"/>
        <request index="17" response="0010000110000000000000000000011000000000" foes="0010000110000000000000000000011000000000" cont="1"/>
        <request index="18" response="0110000000000000000000000000000000000000" foes="0110000110000000000100000000000000000000" cont="1"/>
        <request index="19" response="0110000000000000000000000000000000000000" foes="0110000110000000001000000000000000000000" cont="1"/>
        <request index="20" response="0110000000000000000001000000000000000000" foes="0110000110000000000001000000000000000000" cont="1"/>
        <request index="21" response="0110000000000000000010000000000000000000" foes="0110000110000000000010000000000000000000" cont="1"/>
        <request index="22" response="0101011000000000000000011000000000000000" foes="0101011110000000000000011110011000000000" cont="0"/>
        <request index="23" response="0101011000000000000000011000000000000000" foes="0101011110000000000000011110011000000000" cont="0"/>
        <request index="24" response="0101011000000000000000011000000000000000" foes="0101011110000000000000011110011000000000" cont="0"/>
        <request index="25" response="0101011000000000000000011000000000000000" foes="0101011110000000000000011110011000000000" cont="0"/>
        <request index="26" response="0101011000000000000000011000000000000000" foes="0101011110000000000000011110011000000000" cont="0"/>
        <request index="27" response="1100011000010000000000011000000111110000" foes="1100111110010000000000011110000111110000" cont="1"/>
        <request index="28" response="1100011000000000000000011000000111110000" foes="1100111110001000000000011110000111110000" cont="1"/>
        <request index="29" response="0100000000000000000000011000000000000000" foes="0100000000000000000000011000000000000000" cont="1"/>
        <request index="30" response="1100000000000000000000000000000000000000" foes="1100000000000000000000000000000000000000" cont="1"/>
        <request index="31" response="1010000000011111111111000000011111110000" foes="1010000000011111111111111000011111110000" cont="0"/>
        <request index="32" response="1010000000011111111111000000011111110000" foes="1010000000011111111111111000011111110000" cont="0"/>
        <request index="33" response="1001000000011111110000000110011111110000" foes="1001000000011111110000000110111111110000" cont="1"/>
        <request index="34" response="1001000000011111110000000110011111110000" foes="1001000000011111110000000110111111110000" cont="1"/>
        <request index="35" response="1000000000011000000000000110000000000000" foes="1000000000011000000000000110000000000000" cont="1"/>