<routes>
   <personFlow id="pRegN" begin="0" end="3000" personsPerHour="85.527555">
        <walk edges="edgeN_O edgeS_I" speed="2.047941"/>
    </personFlow>
   <personFlow id="pRegS" begin="0" end="3000" personsPerHour="311.708830">
        <walk edges="edgeS_O edgeN_I" speed="1.987698"/>
    </personFlow>
   <personFlow id="pRegW" begin="0" end="3000" personsPerHour="317.782937">
        <walk edges="edgeW_O edgeE_I" speed="1.735265"/>
    </personFlow>
   <personFlow id="pRegE" begin="0" end="3000" personsPerHour="382.960788">
        <walk edges="edgeE_O edgeW_I" speed="0.953369"/>
    </personFlow>
   <personFlow id="pOppN" begin="0" end="3000" personsPerHour="1015.355888" departPos="300.000000">
        <walk edges="edgeN_I edgeS_O" speed="1.274105"/>
    </personFlow>
   <personFlow id="pOppS" begin="0" end="3000" personsPerHour="226.276715" departPos="300.000000">
        <walk edges="edgeS_I edgeN_O" speed="1.279100"/>
    </personFlow>
   <personFlow id="pOppW" begin="0" end="3000" personsPerHour="752.991155" departPos="400.000000">
        <walk edges="edgeW_I edgeE_O" speed="1.172022"/>
    </personFlow>
   <personFlow id="pOppE" begin="0" end="3000" personsPerHour="597.040805" departPos="300.000000">
        <walk edges="edgeE_I edgeW_O" speed="1.554325"/>
    </personFlow>

    <route id="edgeN_edgeN" edges="edgeN_O edgeN_I" />
    <route id="edgeN_edgeS" edges="edgeN_O edgeS_I" />
    <route id="edgeN_edgeW" edges="edgeN_O edgeW_I" />
    <route id="edgeN_edgeE" edges="edgeN_O edgeE_I" />
    <route id="edgeS_edgeN" edges="edgeS_O edgeN_I" />
    <route id="edgeS_edgeS" edges="edgeS_O edgeS_I" />
    <route id="edgeS_edgeW" edges="edgeS_O edgeW_I" />
    <route id="edgeS_edgeE" edges="edgeS_O edgeE_I" />
    <route id="edgeW_edgeN" edges="edgeW_O edgeN_I" />
    <route id="edgeW_edgeS" edges="edgeW_O edgeS_I" />
    <route id="edgeW_edgeW" edges="edgeW_O edgeW_I" />
    <route id="edgeW_edgeE" edges="edgeW_O edgeE_I" />
    <route id="edgeE_edgeN" edges="edgeE_O edgeN_I" />
    <route id="edgeE_edgeS" edges="edgeE_O edgeS_I" />
    <route id="edgeE_edgeW" edges="edgeE_O edgeW_I" />
    <route id="edgeE_edgeE" edges="edgeE_O edgeE_I" />
    
   <vType id="vehicleS_0" length="4.304000" accel="3.289000" decel="5.592000" sigma="0.5" minGap="2.497181" maxSpeed="126.232860" guiShape="passenger" />
   <vehicle id="straightS_0" type="vehicleS_0" route="edgeS_edgeN" depart="0" departLane="1" />

   <vType id="vehicleE_1" length="4.319000" accel="3.125000" decel="5.093000" sigma="0.5" minGap="2.497181" maxSpeed="126.232860" guiShape="passenger" />
   <vehicle id="straightE_1" type="vehicleE_1" route="edgeE_edgeW" depart="0" departLane="2" />

   <vType id="vehicleN_2" length="5.224000" accel="2.402000" decel="6.149000" sigma="0.5" minGap="2.497181" maxSpeed="126.232860" guiShape="passenger" />
   <vehicle id="straightN_2" type="vehicleN_2" route="edgeN_edgeS" depart="1" departLane="1" />

   <vType id="vehicleW_3" length="4.482000" accel="2.507000" decel="3.086000" sigma="0.5" minGap="2.497181" maxSpeed="126.232860" guiShape="passenger" />
   <vehicle id="rightW_3" type="vehicleW_3" route="edgeW_edgeS" depart="1" departLane="1" />

   <vType id="vehicleE_4" length="4.408000" accel="2.491000" decel="3.674000" sigma="0.5" minGap="2.497181" maxSpeed="126.232860" guiShape="passenger" />
   <vehicle id="straightE_4" type="vehicleE_4" route="edgeE_edgeW" depart="4" departLane="2" />

   <vType id="vehicleE_5" length="5.006000" accel="3.247000" decel="5.621000" sigma="0.5" minGap="2.497181" maxSpeed="126.232860" guiShape="passenger" />
   <vehicle id="straightE_5" type="vehicleE_5" route="edgeE_edgeW" depart="5" departLane="2" />

   <vType id="vehicleS_6" length="4.211000" accel="2.855000" decel="6.943000" sigma="0.5" minGap="2.497181" maxSpeed="126.232860" guiShape="passenger" />
   <vehicle id="straightS_6" type="vehicleS_6" route="edgeS_edgeN" depart="6" departLane="1" />

   <vType id="vehicleS_7" length="4.449000" accel="2.719000" decel="3.580000" sigma="0.5" minGap="2.497181" maxSpeed="126.232860" guiShape="passenger" />
   <vehicle id="straightS_7" type="vehicleS_7" route="edgeS_edgeN" depart="7" departLane="1" />

   <vType id="vehicleW_8" length="5.343000" accel="3.175000" decel="3.285000" sigma="0.5" minGap="2.497181" maxSpeed="126.232860" guiShape="passenger" />
   <vehicle id="straightW_8" type="vehicleW_8" route="edgeW_edgeE" depart="7" departLane="2" />

   <vType id="vehicleE_9" length="4.366000" accel="3.104000" decel="6.547000" sigma="0.5" minGap="2.497181" maxSpeed="126.232860" guiShape="passenger" />
   <vehicle id="straightE_9" type="vehicleE_9" route="edgeE_edgeW" depart="7" departLane="2" />

   <vType id="vehicleW_10" length="5.140000" accel="3.440000" decel="3.328000" sigma="0.5" minGap="2.497181" maxSpeed="126.232860" guiShape="passenger" />
   <vehicle id="straightW_10" type="vehicleW_10" route="edgeW_edgeE" depart="8" departLane="2" />

   <vType id="vehicleS_11" length="5.517000" accel="3.037000" decel="6.863000" sigma="0.5" minGap="2.497181" maxSpeed="126.232860" guiShape="passenger" />
   <vehicle id="straightS_11" type="vehicleS_11" route="edgeS_edgeN" depart="9" departLane="1" />

   <vType id="vehicleE_12" length="5.133000" accel="3.328000" decel="4.138000" sigma="0.5" minGap="2.497181" maxSpeed="126.232860" guiShape="passenger" />
   <vehicle id="rightE_12" type="vehicleE_12" route="edgeE_edgeN" depart="9" departLane="1" />

   <vType id="vehicleN_13" length="4.234000" accel="3.503000" decel="6.429000" sigma="0.5" minGap="2.497181" maxSpeed="126.232860" guiShape="passenger" />
   <vehicle id="straightN_13" type="vehicleN_13" route="edgeN_edgeS" depart="11" departLane="1" />

   <vType id="vehicleE_14" length="4.208000" accel="3.552000" decel="6.653000" sigma="0.5" minGap="2.497181" maxSpeed="126.232860" guiShape="passenger" />
   <vehicle id="straightE_14" type="vehicleE_14" route="edgeE_edgeW" depart="11" departLane="2" />

   <vType id="vehicleW_15" length="5.500000" accel="3.374000" decel="3.703000" sigma="0.5" minGap="2.497181" maxSpeed="126.232860" guiShape="passenger" />
   <vehicle id="straightW_15" type="vehicleW_15" route="edgeW_edgeE" depart="12" departLane="2" />

   <vType id="vehicleS_16" length="4.063000" accel="3.318000" decel="5.977000" sigma="0.5" minGap="2.497181" maxSpeed="126.232860" guiShape="passenger" />
   <vehicle id="straightS_16" type="vehicleS_16" route="edgeS_edgeN" depart="13" departLane="1" />

   <vType id="vehicleN_17" length="4.906000" accel="3.566000" decel="6.681000" sigma="0.5" minGap="2.497181" maxSpeed="126.232860" guiShape="passenger" />
   <vehicle id="straightN_17" type="vehicleN_17" route="edgeN_edgeS" depart="14" departLane="1" />

   <vType id="vehicleE_18" length="3.987000" accel="3.067000" decel="5.210000" sigma="0.5" minGap="2.497181" maxSpeed="126.232860" guiShape="passenger" />
   <vehicle id="straightE_18" type="vehicleE_18" route="edgeE_edgeW" depart="15" departLane="2" />

   <vType id="vehicleN_19" length="4.313000" accel="3.494000" decel="6.382000" sigma="0.5" minGap="2.497181" maxSpeed="126.232860" guiShape="passenger" />
   <vehicle id="straightN_19" type="vehicleN_19" route="edgeN_edgeS" depart="16" departLane="1" />

   <vType id="vehicleW_20" length="4.800000" accel="3.273000" decel="6.480000" sigma="0.5" minGap="2.497181" maxSpeed="126.232860" guiShape="passenger" />
   <vehicle id="straightW_20" type="vehicleW_20" route="edgeW_edgeE" depart="16" departLane="2" />

   <vType id="vehicleE_21" length="4.593000" accel="2.509000" decel="5.515000" sigma="0.5" minGap="2.497181" maxSpeed="126.232860" guiShape="passenger" />
   <vehicle id="straightE_21" type="vehicleE_21" route="edgeE_edgeW" depart="16" departLane="2" />

   <vType id="vehicleS_22" length="4.487000" accel="3.441000" decel="3.742000" sigma="0.5" minGap="2.497181" maxSpeed="126.232860" guiShape="passenger" />
   <vehicle id="straightS_22" type="vehicleS_22" route="edgeS_edgeN" depart="18" departLane="1" />

   <vType id="vehicleE_23" length="4.680000" accel="3.456000" decel="2.994000" sigma="0.5" minGap="2.497181" maxSpeed="126.232860" guiShape="passenger" />
   <vehicle id="straightE_23" type="vehicleE_23" route="edgeE_edgeW" depart="18" departLane="2" />

   <vType id="vehicleN_24" length="5.266000" accel="3.571000" decel="6.670000" sigma="0.5" minGap="2.497181" maxSpeed="126.232860" guiShape="passenger" />
   <vehicle id="uturnN_24" type="vehicleN_24" route="edgeN_edgeN" depart="19" departLane="1" />

   <vType id="vehicleW_25" length="4.290000" accel="2.881000" decel="2.921000" sigma="0.5" minGap="2.497181" maxSpeed="126.232860" guiShape="passenger" />
   <vehicle id="straightW_25" type="vehicleW_25" route="edgeW_edgeE" depart="19" departLane="2" />

   <vType id="vehicleE_26" length="5.408000" accel="3.348000" decel="3.900000" sigma="0.5" minGap="2.497181" maxSpeed="126.232860" guiShape="passenger" />
   <vehicle id="straightE_26" type="vehicleE_26" route="edgeE_edgeW" depart="19" departLane="2" />

   <vType id="vehicleN_27" length="5.474000" accel="3.098000" decel="5.010000" sigma="0.5" minGap="2.497181" maxSpeed="126.232860" guiShape="passenger" />
   <vehicle id="straightN_27" type="vehicleN_27" route="edgeN_edgeS" depart="20" departLane="1" />

   <vType id="vehicleS_28" length="4.743000" accel="3.430000" decel="3.348000" sigma="0.5" minGap="2.497181" maxSpeed="126.232860" guiShape="passenger" />
   <vehicle id="straightS_28" type="vehicleS_28" route="edgeS_edgeN" depart="20" departLane="1" />

   <vType id="vehicleE_29" length="5.307000" accel="2.885000" decel="6.736000" sigma="0.5" minGap="2.497181" maxSpeed="126.232860" guiShape="passenger" />
   <vehicle id="straightE_29" type="vehicleE_29" route="edgeE_edgeW" depart="20" departLane="2" />

   <vType id="vehicleS_30" length="4.986000" accel="3.081000" decel="4.035000" sigma="0.5" minGap="2.497181" maxSpeed="126.232860" guiShape="passenger" />
   <vehicle id="straightS_30" type="vehicleS_30" route="edgeS_edgeN" depart="21" departLane="1" />

   <vType id="vehicleW_31" length="4.329000" accel="2.875000" decel="5.570000" sigma="0.5" minGap="2.497181" maxSpeed="126.232860" guiShape="passenger" />
   <vehicle id="rightW_31" type="vehicleW_31" route="edgeW_edgeS" depart="21" departLane="1" />

   <vType id="vehicleW_32" length="4.838000" accel="2.515000" decel="4.991000" sigma="0.5" minGap="2.497181" maxSpeed="126.232860" guiShape="passenger" />
   <vehicle id="straightW_32" type="vehicleW_32" route="edgeW_edgeE" depart="22" departLane="2" />

   <vType id="vehicleE_33" length="4.062000" accel="2.691000" decel="3.899000" sigma="0.5" minGap="2.497181" maxSpeed="126.232860" guiShape="passenger" />
   <vehicle id="straightE_33" type="vehicleE_33" route="edgeE_edgeW" depart="22" departLane="2" />

   <vType id="vehicleS_34" length="4.424000" accel="3.200000" decel="6.724000" sigma="0.5" minGap="2.497181" maxSpeed="126.232860" guiShape="passenger" />
   <vehicle id="straightS_34" type="vehicleS_34" route="edgeS_edgeN" depart="24" departLane="1" />

   <vType id="vehicleW_35" length="5.119000" accel="2.583000" decel="3.885000" sigma="0.5" minGap="2.497181" maxSpeed="126.232860" guiShape="passenger" />
   <vehicle id="rightW_35" type="vehicleW_35" route="edgeW_edgeS" depart="24" departLane="1" />

   <vType id="vehicleN_36" length="4.368000" accel="2.987000" decel="6.579000" sigma="0.5" minGap="2.497181" maxSpeed="126.232860" guiShape="passenger" />
   <vehicle id="straightN_36" type="vehicleN_36" route="edgeN_edgeS" depart="25" departLane="1" />

   <vType id="vehicleS_37" length="4.388000" accel="2.398000" decel="5.999000" sigma="0.5" minGap="2.497181" maxSpeed="126.232860" guiShape="passenger" />
   <vehicle id="straightS_37" type="vehicleS_37" route="edgeS_edgeN" depart="25" departLane="1" />

   <vType id="vehicleW_38" length="5.062000" accel="3.075000" decel="3.151000" sigma="0.5" minGap="2.497181" maxSpeed="126.232860" guiShape="passenger" />
   <vehicle id="straightW_38" type="vehicleW_38" route="edgeW_edgeE" depart="25" departLane="2" />

   <vType id="vehicleW_39" length="4.438000" accel="3.486000" decel="6.107000" sigma="0.5" minGap="2.497181" maxSpeed="126.232860" guiShape="passenger" />
   <vehicle id="straightW_39" type="vehicleW_39" route="edgeW_edgeE" depart="26" departLane="2" />

   <vType id="vehicleN_40" length="4.115000" accel="3.342000" decel="6.488000" sigma="0.5" minGap="2.497181" maxSpeed="126.232860" guiShape="passenger" />
   <vehicle id="straightN_40" type="vehicleN_40" route="edgeN_edgeS" depart="27" departLane="1" />

   <vType id="vehicleN_41" length="5.209000" accel="2.609000" decel="4.449000" sigma="0.5" minGap="2.497181" maxSpeed="126.232860" guiShape="passenger" />
   <vehicle id="straightN_41" type="vehicleN_41" route="edgeN_edgeS" depart="28" departLane="1" />

   <vType id="vehicleE_42" length="4.124000" accel="3.454000" decel="6.377000" sigma="0.5" minGap="2.497181" maxSpeed="126.232860" guiShape="passenger" />
   <vehicle id="rightE_42" type="vehicleE_42" route="edgeE_edgeN" depart="29" departLane="1" />

   <vType id="vehicleN_43" length="4.503000" accel="3.391000" decel="6.432000" sigma="0.5" minGap="2.497181" maxSpeed="126.232860" guiShape="passenger" />
   <vehicle id="straightN_43" type="vehicleN_43" route="edgeN_edgeS" depart="30" departLane="1" />

   <vType id="vehicleS_44" length="4.469000" accel="3.444000" decel="6.845000" sigma="0.5" minGap="2.497181" maxSpeed="126.232860" guiShape="passenger" />
   <vehicle id="straightS_44" type="vehicleS_44" route="edgeS_edgeN" depart="30" departLane="1" />

   <vType id="vehicleE_45" length="4.364000" accel="3.099000" decel="6.917000" sigma="0.5" minGap="2.497181" maxSpeed="126.232860" guiShape="passenger" />
   <vehicle id="rightE_45" type="vehicleE_45" route="edgeE_edgeN" depart="31" departLane="1" />

   <vType id="vehicleN_46" length="5.097000" accel="2.775000" decel="5.287000" sigma="0.5" minGap="2.497181" maxSpeed="126.232860" guiShape="passenger" />
   <vehicle id="straightN_46" type="vehicleN_46" route="edgeN_edgeS" depart="32" departLane="1" />

   <vType id="vehicleE_47" length="3.957000" accel="3.518000" decel="4.994000" sigma="0.5" minGap="2.497181" maxSpeed="126.232860" guiShape="passenger" />
   <vehicle id="straightE_47" type="vehicleE_47" route="edgeE_edgeW" depart="32" departLane="2" />

   <vType id="vehicleS_48" length="4.472000" accel="2.775000" decel="6.332000" sigma="0.5" minGap="2.497181" maxSpeed="126.232860" guiShape="passenger" />
   <vehicle id="straightS_48" type="vehicleS_48" route="edgeS_edgeN" depart="33" departLane="1" />

   <vType id="vehicleE_49" length="4.549000" accel="3.303000" decel="3.420000" sigma="0.5" minGap="2.497181" maxSpeed="126.232860" guiShape="passenger" />
   <vehicle id="straightE_49" type="vehicleE_49" route="edgeE_edgeW" depart="34" departLane="2" />

   <vType id="vehicleE_50" length="4.906000" accel="2.785000" decel="4.577000" sigma="0.5" minGap="2.497181" maxSpeed="126.232860" guiShape="passenger" />
   <vehicle id="rightE_50" type="vehicleE_50" route="edgeE_edgeN" depart="35" departLane="1" />

   <vType id="vehicleN_51" length="4.323000" accel="2.771000" decel="6.153000" sigma="0.5" minGap="2.497181" maxSpeed="126.232860" guiShape="passenger" />
   <vehicle id="straightN_51" type="vehicleN_51" route="edgeN_edgeS" depart="38" departLane="1" />

   <vType id="vehicleS_52" length="4.700000" accel="3.426000" decel="2.983000" sigma="0.5" minGap="2.497181" maxSpeed="126.232860" guiShape="passenger" />
   <vehicle id="straightS_52" type="vehicleS_52" route="edgeS_edgeN" depart="38" departLane="1" />

   <vType id="vehicleE_53" length="5.355000" accel="3.439000" decel="6.493000" sigma="0.5" minGap="2.497181" maxSpeed="126.232860" guiShape="passenger" />
   <vehicle id="straightE_53" type="vehicleE_53" route="edgeE_edgeW" depart="39" departLane="2" />

   <vType id="vehicleN_54" length="5.046000" accel="2.958000" decel="5.076000" sigma="0.5" minGap="2.497181" maxSpeed="126.232860" guiShape="passenger" />
   <vehicle id="straightN_54" type="vehicleN_54" route="edgeN_edgeS" depart="40" departLane="1" />

   <vType id="vehicleN_55" length="4.955000" accel="3.324000" decel="4.920000" sigma="0.5" minGap="2.497181" maxSpeed="126.232860" guiShape="passenger" />
   <vehicle id="straightN_55" type="vehicleN_55" route="edgeN_edgeS" depart="44" departLane="1" />

   <vType id="vehicleS_56" length="4.402000" accel="2.724000" decel="4.049000" sigma="0.5" minGap="2.497181" maxSpeed="126.232860" guiShape="passenger" />
   <vehicle id="straightS_56" type="vehicleS_56" route="edgeS_edgeN" depart="44" departLane="1" />

   <vType id="vehicleW_57" length="5.043000" accel="3.252000" decel="2.946000" sigma="0.5" minGap="2.497181" maxSpeed="126.232860" guiShape="passenger" />
   <vehicle id="straightW_57" type="vehicleW_57" route="edgeW_edgeE" depart="44" departLane="2" />

   <vType id="vehicleE_58" length="4.052000" accel="3.406000" decel="4.351000" sigma="0.5" minGap="2.497181" maxSpeed="126.232860" guiShape="passenger" />
   <vehicle id="straightE_58" type="vehicleE_58" route="edgeE_edgeW" depart="44" departLane="2" />

   <vType id="vehicleE_59" length="5.137000" accel="3.431000" decel="6.787000" sigma="0.5" minGap="2.497181" maxSpeed="126.232860" guiShape="passenger" />
   <vehicle id="straightE_59" type="vehicleE_59" route="edgeE_edgeW" depart="45" departLane="2" />

   <vType id="vehicleS_60" length="4.564000" accel="3.207000" decel="6.116000" sigma="0.5" minGap="2.497181" maxSpeed="126.232860" guiShape="passenger" />
   <vehicle id="straightS_60" type="vehicleS_60" route="edgeS_edgeN" depart="47" departLane="1" />

   <vType id="vehicleS_61" length="5.315000" accel="2.615000" decel="3.792000" sigma="0.5" minGap="2.497181" maxSpeed="126.232860" guiShape="passenger" />
   <vehicle id="straightS_61" type="vehicleS_61" route="edgeS_edgeN" depart="49" departLane="1" />

   <vType id="vehicleW_62" length="5.149000" accel="2.855000" decel="5.917000" sigma="0.5" minGap="2.497181" maxSpeed="126.232860" guiShape="passenger" />
   <vehicle id="straightW_62" type="vehicleW_62" route="edgeW_edgeE" depart="49" departLane="2" />

   <vType id="vehicleE_63" length="3.984000" accel="3.049000" decel="6.988000" sigma="0.5" minGap="2.497181" maxSpeed="126.232860" guiShape="passenger" />
   <vehicle id="straightE_63" type="vehicleE_63" route="edgeE_edgeW" depart="49" departLane="2" />

   <vType id="vehicleN_64" length="5.456000" accel="2.443000" decel="2.802000" sigma="0.5" minGap="2.497181" maxSpeed="126.232860" guiShape="passenger" />
   <vehicle id="straightN_64" type="vehicleN_64" route="edgeN_edgeS" depart="50" departLane="1" />

   <vType id="vehicleS_65" length="4.193000" accel="2.547000" decel="5.560000" sigma="0.5" minGap="2.497181" maxSpeed="126.232860" guiShape="passenger" />
   <vehicle id="leftS_65" type="vehicleS_65" route="edgeS_edgeW" depart="50" departLane="1" />

   <vType id="vehicleE_66" length="4.905000" accel="3.565000" decel="5.771000" sigma="0.5" minGap="2.497181" maxSpeed="126.232860" guiShape="passenger" />
   <vehicle id="straightE_66" type="vehicleE_66" route="edgeE_edgeW" depart="50" departLane="2" />

   <vType id="vehicleS_67" length="4.444000" accel="3.217000" decel="6.808000" sigma="0.5" minGap="2.497181" maxSpeed="126.232860" guiShape="passenger" />
   <vehicle id="straightS_67" type="vehicleS_67" route="edgeS_edgeN" depart="51" departLane="1" />

   <vType id="vehicleE_68" length="5.258000" accel="2.689000" decel="5.680000" sigma="0.5" minGap="2.497181" maxSpeed="126.232860" guiShape="passenger" />
   <vehicle id="straightE_68" type="vehicleE_68" route="edgeE_edgeW" depart="51" departLane="2" />

   <vType id="vehicleW_69" length="5.182000" accel="2.816000" decel="4.519000" sigma="0.5" minGap="2.497181" maxSpeed="126.232860" guiShape="passenger" />
   <vehicle id="uturnW_69" type="vehicleW_69" route="edgeW_edgeW" depart="52" departLane="3" />

   <vType id="vehicleE_70" length="4.490000" accel="3.426000" decel="6.221000" sigma="0.5" minGap="2.497181" maxSpeed="126.232860" guiShape="passenger" />
   <vehicle id="straightE_70" type="vehicleE_70" route="edgeE_edgeW" depart="52" departLane="2" />

   <vType id="vehicleN_71" length="4.773000" accel="3.184000" decel="5.329000" sigma="0.5" minGap="2.497181" maxSpeed="126.232860" guiShape="passenger" />
   <vehicle id="straightN_71" type="vehicleN_71" route="edgeN_edgeS" depart="54" departLane="1" />

   <vType id="vehicleS_72" length="4.392000" accel="2.942000" decel="5.910000" sigma="0.5" minGap="2.497181" maxSpeed="126.232860" guiShape="passenger" />
   <vehicle id="straightS_72" type="vehicleS_72" route="edgeS_edgeN" depart="55" departLane="1" />

   <vType id="vehicleE_73" length="4.890000" accel="3.463000" decel="5.069000" sigma="0.5" minGap="2.497181" maxSpeed="126.232860" guiShape="passenger" />
   <vehicle id="straightE_73" type="vehicleE_73" route="edgeE_edgeW" depart="56" departLane="2" />

   <vType id="vehicleN_74" length="4.721000" accel="3.315000" decel="5.652000" sigma="0.5" minGap="2.497181" maxSpeed="126.232860" guiShape="passenger" />
   <vehicle id="straightN_74" type="vehicleN_74" route="edgeN_edgeS" depart="57" departLane="1" />

   <vType id="vehicleW_75" length="4.589000" accel="2.690000" decel="5.536000" sigma="0.5" minGap="2.497181" maxSpeed="126.232860" guiShape="passenger" />
   <vehicle id="straightW_75" type="vehicleW_75" route="edgeW_edgeE" depart="57" departLane="2" />

   <vType id="vehicleE_76" length="4.379000" accel="2.699000" decel="3.189000" sigma="0.5" minGap="2.497181" maxSpeed="126.232860" guiShape="passenger" />
   <vehicle id="straightE_76" type="vehicleE_76" route="edgeE_edgeW" depart="58" departLane="2" />

   <vType id="vehicleN_77" length="4.388000" accel="3.110000" decel="5.952000" sigma="0.5" minGap="2.497181" maxSpeed="126.232860" guiShape="passenger" />
   <vehicle id="straightN_77" type="vehicleN_77" route="edgeN_edgeS" depart="60" departLane="1" />

   <vType id="vehicleE_78" length="4.428000" accel="3.254000" decel="3.215000" sigma="0.5" minGap="2.497181" maxSpeed="126.232860" guiShape="passenger" />
   <vehicle id="straightE_78" type="vehicleE_78" route="edgeE_edgeW" depart="60" departLane="2" />

   <vType id="vehicleE_79" length="4.724000" accel="3.454000" decel="5.148000" sigma="0.5" minGap="2.497181" maxSpeed="126.232860" guiShape="passenger" />
   <vehicle id="rightE_79" type="vehicleE_79" route="edgeE_edgeN" depart="61" departLane="1" />

   <vType id="vehicleE_80" length="4.133000" accel="2.473000" decel="4.792000" sigma="0.5" minGap="2.497181" maxSpeed="126.232860" guiShape="passenger" />
   <vehicle id="rightE_80" type="vehicleE_80" route="edgeE_edgeN" depart="62" departLane="1" />

   <vType id="vehicleN_81" length="5.444000" accel="2.497000" decel="3.740000" sigma="0.5" minGap="2.497181" maxSpeed="126.232860" guiShape="passenger" />
   <vehicle id="straightN_81" type="vehicleN_81" route="edgeN_edgeS" depart="63" departLane="1" />

   <vType id="vehicleE_82" length="4.661000" accel="2.932000" decel="6.384000" sigma="0.5" minGap="2.497181" maxSpeed="126.232860" guiShape="passenger" />
   <vehicle id="straightE_82" type="vehicleE_82" route="edgeE_edgeW" depart="63" departLane="2" />

   <vType id="vehicleS_83" length="4.991000" accel="2.585000" decel="3.419000" sigma="0.5" minGap="2.497181" maxSpeed="126.232860" guiShape="passenger" />
   <vehicle id="straightS_83" type="vehicleS_83" route="edgeS_edgeN" depart="65" departLane="1" />

   <vType id="vehicleW_84" length="5.036000" accel="2.965000" decel="2.809000" sigma="0.5" minGap="2.497181" maxSpeed="126.232860" guiShape="passenger" />
   <vehicle id="straightW_84" type="vehicleW_84" route="edgeW_edgeE" depart="65" departLane="2" />

   <vType id="vehicleS_85" length="4.437000" accel="3.304000" decel="5.127000" sigma="0.5" minGap="2.497181" maxSpeed="126.232860" guiShape="passenger" />
   <vehicle id="straightS_85" type="vehicleS_85" route="edgeS_edgeN" depart="69" departLane="1" />

   <vType id="vehicleW_86" length="4.641000" accel="3.121000" decel="6.511000" sigma="0.5" minGap="2.497181" maxSpeed="126.232860" guiShape="passenger" />
   <vehicle id="straightW_86" type="vehicleW_86" route="edgeW_edgeE" depart="70" departLane="2" />

   <vType id="vehicleN_87" length="5.012000" accel="3.439000" decel="5.205000" sigma="0.5" minGap="2.497181" maxSpeed="126.232860" guiShape="passenger" />
   <vehicle id="straightN_87" type="vehicleN_87" route="edgeN_edgeS" depart="71" departLane="1" />

   <vType id="vehicleE_88" length="5.141000" accel="2.966000" decel="5.483000" sigma="0.5" minGap="2.497181" maxSpeed="126.232860" guiShape="passenger" />
   <vehicle id="straightE_88" type="vehicleE_88" route="edgeE_edgeW" depart="71" departLane="2" />

   <vType id="vehicleN_89" length="4.950000" accel="2.991000" decel="3.062000" sigma="0.5" minGap="2.497181" maxSpeed="126.232860" guiShape="passenger" />
   <vehicle id="straightN_89" type="vehicleN_89" route="edgeN_edgeS" depart="72" departLane="1" />

   <vType id="vehicleE_90" length="4.600000" accel="2.996000" decel="5.531000" sigma="0.5" minGap="2.497181" maxSpeed="126.232860" guiShape="passenger" />
   <vehicle id="straightE_90" type="vehicleE_90" route="edgeE_edgeW" depart="72" departLane="2" />

   <vType id="vehicleE_91" length="5.477000" accel="2.885000" decel="4.891000" sigma="0.5" minGap="2.497181" maxSpeed="126.232860" guiShape="passenger" />
   <vehicle id="straightE_91" type="vehicleE_91" route="edgeE_edgeW" depart="73" departLane="2" />

   <vType id="vehicleE_92" length="5.141000" accel="3.154000" decel="5.951000" sigma="0.5" minGap="2.497181" maxSpeed="126.232860" guiShape="passenger" />
   <vehicle id="straightE_92" type="vehicleE_92" route="edgeE_edgeW" depart="74" departLane="2" />

   <vType id="vehicleN_93" length="4.406000" accel="3.464000" decel="4.762000" sigma="0.5" minGap="2.497181" maxSpeed="126.232860" guiShape="passenger" />
   <vehicle id="straightN_93" type="vehicleN_93" route="edgeN_edgeS" depart="75" departLane="1" />

   <vType id="vehicleE_94" length="4.819000" accel="3.065000" decel="3.071000" sigma="0.5" minGap="2.497181" maxSpeed="126.232860" guiShape="passenger" />
   <vehicle id="straightE_94" type="vehicleE_94" route="edgeE_edgeW" depart="75" departLane="2" />

   <vType id="vehicleS_95" length="4.736000" accel="3.265000" decel="4.866000" sigma="0.5" minGap="2.497181" maxSpeed="126.232860" guiShape="passenger" />
   <vehicle id="straightS_95" type="vehicleS_95" route="edgeS_edgeN" depart="76" departLane="1" />

   <vType id="vehicleW_96" length="4.895000" accel="3.301000" decel="3.258000" sigma="0.5" minGap="2.497181" maxSpeed="126.232860" guiShape="passenger" />
   <vehicle id="straightW_96" type="vehicleW_96" route="edgeW_edgeE" depart="77" departLane="2" />

   <vType id="vehicleE_97" length="4.605000" accel="3.529000" decel="4.862000" sigma="0.5" minGap="2.497181" maxSpeed="126.232860" guiShape="passenger" />
   <vehicle id="rightE_97" type="vehicleE_97" route="edgeE_edgeN" depart="77" departLane="1" />

   <vType id="vehicleN_98" length="4.875000" accel="3.608000" decel="4.783000" sigma="0.5" minGap="2.497181" maxSpeed="126.232860" guiShape="passenger" />
   <vehicle id="straightN_98" type="vehicleN_98" route="edgeN_edgeS" depart="78" departLane="1" />

   <vType id="vehicleE_99" length="4.546000" accel="3.527000" decel="6.425000" sigma="0.5" minGap="2.497181" maxSpeed="126.232860" guiShape="passenger" />
   <vehicle id="rightE_99" type="vehicleE_99" route="edgeE_edgeN" depart="78" departLane="1" />

   <vType id="vehicleS_100" length="4.023000" accel="3.299000" decel="5.715000" sigma="0.5" minGap="2.497181" maxSpeed="126.232860" guiShape="passenger" />
   <vehicle id="straightS_100" type="vehicleS_100" route="edgeS_edgeN" depart="79" departLane="1" />

   <vType id="vehicleE_101" length="4.880000" accel="3.451000" decel="6.445000" sigma="0.5" minGap="2.497181" maxSpeed="126.232860" guiShape="passenger" />
   <vehicle id="straightE_101" type="vehicleE_101" route="edgeE_edgeW" depart="80" departLane="2" />

   <vType id="vehicleN_102" length="3.978000" accel="2.569000" decel="6.431000" sigma="0.5" minGap="2.497181" maxSpeed="126.232860" guiShape="passenger" />
   <vehicle id="straightN_102" type="vehicleN_102" route="edgeN_edgeS" depart="81" departLane="1" />

   <vType id="vehicleS_103" length="4.370000" accel="3.151000" decel="4.385000" sigma="0.5" minGap="2.497181" maxSpeed="126.232860" guiShape="passenger" />
   <vehicle id="straightS_103" type="vehicleS_103" route="edgeS_edgeN" depart="81" departLane="1" />

   <vType id="vehicleW_104" length="4.945000" accel="3.513000" decel="6.977000" sigma="0.5" minGap="2.497181" maxSpeed="126.232860" guiShape="passenger" />
   <vehicle id="straightW_104" type="vehicleW_104" route="edgeW_edgeE" depart="83" departLane="2" />

   <vType id="vehicleN_105" length="5.324000" accel="2.933000" decel="5.666000" sigma="0.5" minGap="2.497181" maxSpeed="126.232860" guiShape="passenger" />
   <vehicle id="straightN_105" type="vehicleN_105" route="edgeN_edgeS" depart="84" departLane="1" />

   <vType id="vehicleS_106" length="4.414000" accel="2.849000" decel="3.297000" sigma="0.5" minGap="2.497181" maxSpeed="126.232860" guiShape="passenger" />
   <vehicle id="straightS_106" type="vehicleS_106" route="edgeS_edgeN" depart="84" departLane="1" />

   <vType id="vehicleN_107" length="5.321000" accel="3.147000" decel="3.708000" sigma="0.5" minGap="2.497181" maxSpeed="126.232860" guiShape="passenger" />
   <vehicle id="straightN_107" type="vehicleN_107" route="edgeN_edgeS" depart="85" departLane="1" />

   <vType id="vehicleS_108" length="4.675000" accel="3.204000" decel="6.551000" sigma="0.5" minGap="2.497181" maxSpeed="126.232860" guiShape="passenger" />
   <vehicle id="straightS_108" type="vehicleS_108" route="edgeS_edgeN" depart="85" departLane="1" />
