<additional>
   <tlLogic id="juncMain" type="static" programID="1" offset="0">
       <phase duration="50.168704" state="GGggGGGGGgggrrrrrrGGggGGGGGgggrrrrrrrGrG"/>
       <phase duration="5.835143" state="yyyyyyyyyyyyrrrrrryyyyyyyyyyyyrrrrrrrGrG"/>
       <phase duration="9.601797" state="rrrrrrrrrrrrrrrrrrrrrrrrrrrrrrrrrrrrrGrG"/>
       <phase duration="88.633899" state="rrrrrrrrrrrrGGGgggrrrrrrrrrrrrGGGgggGrGr"/>
       <phase duration="4.501737" state="rrrrrrrrrrrryyyyyyrrrrrrrrrrrryyyyyyGrGr"/>
       <phase duration="3.144319" state="rrrrrrrrrrrrrrrrrrrrrrrrrrrrrrrrrrrrGrGr"/>
       <phase duration="23.030080" state="rrrrrrrrrrGGrrrrrrrrrrrrrrrrGGrrrrrrrrrr"/>
   </tlLogic>
</additional>
