<routes>
   <personFlow id="pRegN" begin="0" end="3000" personsPerHour="904.773802">
        <walk edges="edgeN_O edgeS_I" speed="1.561930"/>
    </personFlow>
   <personFlow id="pRegS" begin="0" end="3000" personsPerHour="175.251955">
        <walk edges="edgeS_O edgeN_I" speed="1.381630"/>
    </personFlow>
   <personFlow id="pRegW" begin="0" end="3000" personsPerHour="151.062931">
        <walk edges="edgeW_O edgeE_I" speed="2.181869"/>
    </personFlow>
   <personFlow id="pRegE" begin="0" end="3000" personsPerHour="160.384820">
        <walk edges="edgeE_O edgeW_I" speed="1.730908"/>
    </personFlow>
   <personFlow id="pOppN" begin="0" end="3000" personsPerHour="495.848030" departPos="400.000000">
        <walk edges="edgeN_I edgeS_O" speed="1.394200"/>
    </personFlow>
   <personFlow id="pOppS" begin="0" end="3000" personsPerHour="1072.591051" departPos="600.000000">
        <walk edges="edgeS_I edgeN_O" speed="1.648874"/>
    </personFlow>
   <personFlow id="pOppW" begin="0" end="3000" personsPerHour="399.082952" departPos="300.000000">
        <walk edges="edgeW_I edgeE_O" speed="1.607664"/>
    </personFlow>
   <personFlow id="pOppE" begin="0" end="3000" personsPerHour="417.473977" departPos="800.000000">
        <walk edges="edgeE_I edgeW_O" speed="2.090803"/>
    </personFlow>

    <route id="edgeN_edgeN" edges="edgeN_O edgeN_I" />
    <route id="edgeN_edgeS" edges="edgeN_O edgeS_I" />
    <route id="edgeN_edgeW" edges="edgeN_O edgeW_I" />
    <route id="edgeN_edgeE" edges="edgeN_O edgeE_I" />
    <route id="edgeS_edgeN" edges="edgeS_O edgeN_I" />
    <route id="edgeS_edgeS" edges="edgeS_O edgeS_I" />
    <route id="edgeS_edgeW" edges="edgeS_O edgeW_I" />
    <route id="edgeS_edgeE" edges="edgeS_O edgeE_I" />
    <route id="edgeW_edgeN" edges="edgeW_O edgeN_I" />
    <route id="edgeW_edgeS" edges="edgeW_O edgeS_I" />
    <route id="edgeW_edgeW" edges="edgeW_O edgeW_I" />
    <route id="edgeW_edgeE" edges="edgeW_O edgeE_I" />
    <route id="edgeE_edgeN" edges="edgeE_O edgeN_I" />
    <route id="edgeE_edgeS" edges="edgeE_O edgeS_I" />
    <route id="edgeE_edgeW" edges="edgeE_O edgeW_I" />
    <route id="edgeE_edgeE" edges="edgeE_O edgeE_I" />
    
   <vType id="vehicleS_0" length="4.323000" accel="3.495000" decel="5.354000" sigma="0.5" minGap="2.427185" maxSpeed="140.208907" guiShape="passenger" />
   <vehicle id="straightS_0" type="vehicleS_0" route="edgeS_edgeN" depart="0" departLane="6" />

   <vType id="vehicleW_1" length="3.983000" accel="2.649000" decel="4.808000" sigma="0.5" minGap="2.427185" maxSpeed="140.208907" guiShape="passenger" />
   <vehicle id="straightW_1" type="vehicleW_1" route="edgeW_edgeE" depart="0" departLane="2" />

   <vType id="vehicleN_2" length="5.263000" accel="2.552000" decel="4.545000" sigma="0.5" minGap="2.427185" maxSpeed="140.208907" guiShape="passenger" />
   <vehicle id="rightN_2" type="vehicleN_2" route="edgeN_edgeW" depart="2" departLane="2" />

   <vType id="vehicleS_3" length="4.522000" accel="2.443000" decel="3.507000" sigma="0.5" minGap="2.427185" maxSpeed="140.208907" guiShape="passenger" />
   <vehicle id="uturnS_3" type="vehicleS_3" route="edgeS_edgeS" depart="2" departLane="7" />

   <vType id="vehicleE_4" length="4.439000" accel="2.422000" decel="3.940000" sigma="0.5" minGap="2.427185" maxSpeed="140.208907" guiShape="passenger" />
   <vehicle id="straightE_4" type="vehicleE_4" route="edgeE_edgeW" depart="5" departLane="2" />

   <vType id="vehicleE_5" length="5.108000" accel="3.438000" decel="5.376000" sigma="0.5" minGap="2.427185" maxSpeed="140.208907" guiShape="passenger" />
   <vehicle id="straightE_5" type="vehicleE_5" route="edgeE_edgeW" depart="6" departLane="2" />

   <vType id="vehicleS_6" length="4.218000" accel="2.911000" decel="6.351000" sigma="0.5" minGap="2.427185" maxSpeed="140.208907" guiShape="passenger" />
   <vehicle id="straightS_6" type="vehicleS_6" route="edgeS_edgeN" depart="7" departLane="6" />

   <vType id="vehicleE_7" length="4.029000" accel="3.634000" decel="5.763000" sigma="0.5" minGap="2.427185" maxSpeed="140.208907" guiShape="passenger" />
   <vehicle id="straightE_7" type="vehicleE_7" route="edgeE_edgeW" depart="7" departLane="3" />

   <vType id="vehicleN_8" length="5.586000" accel="3.723000" decel="4.201000" sigma="0.5" minGap="2.427185" maxSpeed="140.208907" guiShape="passenger" />
   <vehicle id="straightN_8" type="vehicleN_8" route="edgeN_edgeS" depart="8" departLane="5" />

   <vType id="vehicleN_9" length="4.917000" accel="2.721000" decel="5.061000" sigma="0.5" minGap="2.427185" maxSpeed="140.208907" guiShape="passenger" />
   <vehicle id="straightN_9" type="vehicleN_9" route="edgeN_edgeS" depart="9" departLane="6" />

   <vType id="vehicleS_10" length="4.124000" accel="3.317000" decel="5.722000" sigma="0.5" minGap="2.427185" maxSpeed="140.208907" guiShape="passenger" />
   <vehicle id="leftS_10" type="vehicleS_10" route="edgeS_edgeW" depart="10" departLane="7" />

   <vType id="vehicleW_11" length="5.249000" accel="3.547000" decel="4.282000" sigma="0.5" minGap="2.427185" maxSpeed="140.208907" guiShape="passenger" />
   <vehicle id="rightW_11" type="vehicleW_11" route="edgeW_edgeS" depart="12" departLane="1" />

   <vType id="vehicleE_12" length="4.245000" accel="3.783000" decel="5.972000" sigma="0.5" minGap="2.427185" maxSpeed="140.208907" guiShape="passenger" />
   <vehicle id="straightE_12" type="vehicleE_12" route="edgeE_edgeW" depart="13" departLane="3" />

   <vType id="vehicleW_13" length="4.215000" accel="3.849000" decel="6.137000" sigma="0.5" minGap="2.427185" maxSpeed="140.208907" guiShape="passenger" />
   <vehicle id="straightW_13" type="vehicleW_13" route="edgeW_edgeE" depart="14" departLane="2" />

   <vType id="vehicleS_14" length="5.661000" accel="3.610000" decel="3.961000" sigma="0.5" minGap="2.427185" maxSpeed="140.208907" guiShape="passenger" />
   <vehicle id="straightS_14" type="vehicleS_14" route="edgeS_edgeN" depart="15" departLane="3" />

   <vType id="vehicleN_15" length="4.053000" accel="3.534000" decel="5.638000" sigma="0.5" minGap="2.427185" maxSpeed="140.208907" guiShape="passenger" />
   <vehicle id="straightN_15" type="vehicleN_15" route="edgeN_edgeS" depart="16" departLane="3" />

   <vType id="vehicleE_16" length="4.996000" accel="3.867000" decel="6.158000" sigma="0.5" minGap="2.427185" maxSpeed="140.208907" guiShape="passenger" />
   <vehicle id="straightE_16" type="vehicleE_16" route="edgeE_edgeW" depart="16" departLane="2" />

   <vType id="vehicleE_17" length="4.724000" accel="2.696000" decel="3.403000" sigma="0.5" minGap="2.427185" maxSpeed="140.208907" guiShape="passenger" />
   <vehicle id="rightE_17" type="vehicleE_17" route="edgeE_edgeN" depart="17" departLane="1" />

   <vType id="vehicleS_18" length="4.056000" accel="3.323000" decel="3.928000" sigma="0.5" minGap="2.427185" maxSpeed="140.208907" guiShape="passenger" />
   <vehicle id="straightS_18" type="vehicleS_18" route="edgeS_edgeN" depart="18" departLane="2" />

   <vType id="vehicleE_19" length="5.105000" accel="2.641000" decel="3.620000" sigma="0.5" minGap="2.427185" maxSpeed="140.208907" guiShape="passenger" />
   <vehicle id="straightE_19" type="vehicleE_19" route="edgeE_edgeW" depart="18" departLane="3" />

   <vType id="vehicleN_20" length="4.646000" accel="2.445000" decel="5.298000" sigma="0.5" minGap="2.427185" maxSpeed="140.208907" guiShape="passenger" />
   <vehicle id="straightN_20" type="vehicleN_20" route="edgeN_edgeS" depart="19" departLane="4" />

   <vType id="vehicleW_21" length="4.527000" accel="3.699000" decel="3.991000" sigma="0.5" minGap="2.427185" maxSpeed="140.208907" guiShape="passenger" />
   <vehicle id="straightW_21" type="vehicleW_21" route="edgeW_edgeE" depart="20" departLane="2" />

   <vType id="vehicleN_22" length="4.743000" accel="3.720000" decel="3.439000" sigma="0.5" minGap="2.427185" maxSpeed="140.208907" guiShape="passenger" />
   <vehicle id="straightN_22" type="vehicleN_22" route="edgeN_edgeS" depart="21" departLane="6" />

   <vType id="vehicleS_23" length="4.880000" accel="2.315000" decel="3.496000" sigma="0.5" minGap="2.427185" maxSpeed="140.208907" guiShape="passenger" />
   <vehicle id="straightS_23" type="vehicleS_23" route="edgeS_edgeN" depart="21" departLane="3" />

   <vType id="vehicleW_24" length="4.306000" accel="2.947000" decel="3.385000" sigma="0.5" minGap="2.427185" maxSpeed="140.208907" guiShape="passenger" />
   <vehicle id="straightW_24" type="vehicleW_24" route="edgeW_edgeE" depart="21" departLane="3" />

   <vType id="vehicleE_25" length="5.558000" accel="3.574000" decel="4.107000" sigma="0.5" minGap="2.427185" maxSpeed="140.208907" guiShape="passenger" />
   <vehicle id="straightE_25" type="vehicleE_25" route="edgeE_edgeW" depart="21" departLane="3" />

   <vType id="vehicleN_26" length="5.632000" accel="3.238000" decel="4.926000" sigma="0.5" minGap="2.427185" maxSpeed="140.208907" guiShape="passenger" />
   <vehicle id="straightN_26" type="vehicleN_26" route="edgeN_edgeS" depart="22" departLane="4" />

   <vType id="vehicleS_27" length="4.814000" accel="3.685000" decel="3.700000" sigma="0.5" minGap="2.427185" maxSpeed="140.208907" guiShape="passenger" />
   <vehicle id="straightS_27" type="vehicleS_27" route="edgeS_edgeN" depart="22" departLane="6" />

   <vType id="vehicleW_28" length="4.976000" accel="3.395000" decel="3.948000" sigma="0.5" minGap="2.427185" maxSpeed="140.208907" guiShape="passenger" />
   <vehicle id="leftW_28" type="vehicleW_28" route="edgeW_edgeN" depart="22" departLane="3" />

   <vType id="vehicleW_29" length="5.085000" accel="3.215000" decel="4.206000" sigma="0.5" minGap="2.427185" maxSpeed="140.208907" guiShape="passenger" />
   <vehicle id="leftW_29" type="vehicleW_29" route="edgeW_edgeN" depart="23" departLane="3" />

   <vType id="vehicleE_30" length="4.350000" accel="2.938000" decel="5.338000" sigma="0.5" minGap="2.427185" maxSpeed="140.208907" guiShape="passenger" />
   <vehicle id="straightE_30" type="vehicleE_30" route="edgeE_edgeW" depart="23" departLane="3" />

   <vType id="vehicleE_31" length="4.919000" accel="2.455000" decel="4.911000" sigma="0.5" minGap="2.427185" maxSpeed="140.208907" guiShape="passenger" />
   <vehicle id="straightE_31" type="vehicleE_31" route="edgeE_edgeW" depart="24" departLane="3" />

   <vType id="vehicleN_32" length="4.052000" accel="2.690000" decel="4.106000" sigma="0.5" minGap="2.427185" maxSpeed="140.208907" guiShape="passenger" />
   <vehicle id="straightN_32" type="vehicleN_32" route="edgeN_edgeS" depart="25" departLane="5" />

   <vType id="vehicleW_33" length="4.457000" accel="3.375000" decel="6.189000" sigma="0.5" minGap="2.427185" maxSpeed="140.208907" guiShape="passenger" />
   <vehicle id="straightW_33" type="vehicleW_33" route="edgeW_edgeE" depart="26" departLane="2" />

   <vType id="vehicleE_34" length="5.234000" accel="2.545000" decel="4.096000" sigma="0.5" minGap="2.427185" maxSpeed="140.208907" guiShape="passenger" />
   <vehicle id="rightE_34" type="vehicleE_34" route="edgeE_edgeN" depart="26" departLane="1" />

   <vType id="vehicleS_35" length="4.395000" accel="3.090000" decel="6.082000" sigma="0.5" minGap="2.427185" maxSpeed="140.208907" guiShape="passenger" />
   <vehicle id="straightS_35" type="vehicleS_35" route="edgeS_edgeN" depart="27" departLane="2" />

   <vType id="vehicleW_36" length="4.417000" accel="2.297000" decel="5.655000" sigma="0.5" minGap="2.427185" maxSpeed="140.208907" guiShape="passenger" />
   <vehicle id="straightW_36" type="vehicleW_36" route="edgeW_edgeE" depart="27" departLane="3" />

   <vType id="vehicleE_37" length="5.170000" accel="3.208000" decel="3.555000" sigma="0.5" minGap="2.427185" maxSpeed="140.208907" guiShape="passenger" />
   <vehicle id="straightE_37" type="vehicleE_37" route="edgeE_edgeW" depart="27" departLane="2" />

   <vType id="vehicleE_38" length="4.472000" accel="3.760000" decel="5.735000" sigma="0.5" minGap="2.427185" maxSpeed="140.208907" guiShape="passenger" />
   <vehicle id="leftE_38" type="vehicleE_38" route="edgeE_edgeS" depart="28" departLane="3" />

   <vType id="vehicleS_39" length="4.112000" accel="3.566000" decel="6.015000" sigma="0.5" minGap="2.427185" maxSpeed="140.208907" guiShape="passenger" />
   <vehicle id="straightS_39" type="vehicleS_39" route="edgeS_edgeN" depart="29" departLane="5" />

   <vType id="vehicleW_40" length="4.242000" accel="2.965000" decel="3.770000" sigma="0.5" minGap="2.427185" maxSpeed="140.208907" guiShape="passenger" />
   <vehicle id="straightW_40" type="vehicleW_40" route="edgeW_edgeE" depart="30" departLane="3" />

   <vType id="vehicleE_41" length="5.162000" accel="2.916000" decel="3.322000" sigma="0.5" minGap="2.427185" maxSpeed="140.208907" guiShape="passenger" />
   <vehicle id="leftE_41" type="vehicleE_41" route="edgeE_edgeS" depart="31" departLane="3" />

   <vType id="vehicleN_42" length="4.739000" accel="2.790000" decel="5.732000" sigma="0.5" minGap="2.427185" maxSpeed="140.208907" guiShape="passenger" />
   <vehicle id="rightN_42" type="vehicleN_42" route="edgeN_edgeW" depart="32" departLane="1" />

   <vType id="vehicleS_43" length="4.631000" accel="2.747000" decel="3.420000" sigma="0.5" minGap="2.427185" maxSpeed="140.208907" guiShape="passenger" />
   <vehicle id="straightS_43" type="vehicleS_43" route="edgeS_edgeN" depart="32" departLane="4" />

   <vType id="vehicleE_44" length="4.390000" accel="3.240000" decel="6.332000" sigma="0.5" minGap="2.427185" maxSpeed="140.208907" guiShape="passenger" />
   <vehicle id="rightE_44" type="vehicleE_44" route="edgeE_edgeN" depart="33" departLane="1" />

   <vType id="vehicleN_45" length="5.210000" accel="2.804000" decel="5.130000" sigma="0.5" minGap="2.427185" maxSpeed="140.208907" guiShape="passenger" />
   <vehicle id="straightN_45" type="vehicleN_45" route="edgeN_edgeS" depart="34" departLane="6" />

   <vType id="vehicleS_46" length="4.265000" accel="2.364000" decel="4.588000" sigma="0.5" minGap="2.427185" maxSpeed="140.208907" guiShape="passenger" />
   <vehicle id="rightS_46" type="vehicleS_46" route="edgeS_edgeE" depart="34" departLane="1" />

   <vType id="vehicleE_47" length="4.511000" accel="2.804000" decel="5.900000" sigma="0.5" minGap="2.427185" maxSpeed="140.208907" guiShape="passenger" />
   <vehicle id="straightE_47" type="vehicleE_47" route="edgeE_edgeW" depart="34" departLane="3" />

   <vType id="vehicleS_48" length="4.597000" accel="3.514000" decel="3.753000" sigma="0.5" minGap="2.427185" maxSpeed="140.208907" guiShape="passenger" />
   <vehicle id="straightS_48" type="vehicleS_48" route="edgeS_edgeN" depart="36" departLane="6" />

   <vType id="vehicleN_49" length="4.686000" accel="3.239000" decel="5.284000" sigma="0.5" minGap="2.427185" maxSpeed="140.208907" guiShape="passenger" />
   <vehicle id="straightN_49" type="vehicleN_49" route="edgeN_edgeS" depart="37" departLane="5" />

   <vType id="vehicleN_50" length="5.018000" accel="2.444000" decel="6.231000" sigma="0.5" minGap="2.427185" maxSpeed="140.208907" guiShape="passenger" />
   <vehicle id="straightN_50" type="vehicleN_50" route="edgeN_edgeS" depart="39" departLane="3" />

   <vType id="vehicleE_51" length="4.361000" accel="3.068000" decel="5.905000" sigma="0.5" minGap="2.427185" maxSpeed="140.208907" guiShape="passenger" />
   <vehicle id="leftE_51" type="vehicleE_51" route="edgeE_edgeS" depart="39" departLane="3" />

   <vType id="vehicleW_52" length="5.498000" accel="3.697000" decel="6.019000" sigma="0.5" minGap="2.427185" maxSpeed="140.208907" guiShape="passenger" />
   <vehicle id="straightW_52" type="vehicleW_52" route="edgeW_edgeE" depart="41" departLane="3" />

   <vType id="vehicleE_53" length="5.153000" accel="3.050000" decel="4.974000" sigma="0.5" minGap="2.427185" maxSpeed="140.208907" guiShape="passenger" />
   <vehicle id="straightE_53" type="vehicleE_53" route="edgeE_edgeW" depart="41" departLane="2" />

   <vType id="vehicleE_54" length="5.051000" accel="3.543000" decel="4.859000" sigma="0.5" minGap="2.427185" maxSpeed="140.208907" guiShape="passenger" />
   <vehicle id="straightE_54" type="vehicleE_54" route="edgeE_edgeW" depart="45" departLane="2" />

   <vType id="vehicleN_55" length="4.433000" accel="2.735000" decel="4.217000" sigma="0.5" minGap="2.427185" maxSpeed="140.208907" guiShape="passenger" />
   <vehicle id="leftN_55" type="vehicleN_55" route="edgeN_edgeE" depart="46" departLane="6" />

   <vType id="vehicleS_56" length="5.149000" accel="3.446000" decel="3.403000" sigma="0.5" minGap="2.427185" maxSpeed="140.208907" guiShape="passenger" />
   <vehicle id="straightS_56" type="vehicleS_56" route="edgeS_edgeN" depart="46" departLane="5" />

   <vType id="vehicleN_57" length="4.615000" accel="3.549000" decel="6.212000" sigma="0.5" minGap="2.427185" maxSpeed="140.208907" guiShape="passenger" />
   <vehicle id="rightN_57" type="vehicleN_57" route="edgeN_edgeW" depart="47" departLane="1" />

   <vType id="vehicleE_58" length="4.549000" accel="3.523000" decel="5.917000" sigma="0.5" minGap="2.427185" maxSpeed="140.208907" guiShape="passenger" />
   <vehicle id="leftE_58" type="vehicleE_58" route="edgeE_edgeS" depart="47" departLane="3" />

   <vType id="vehicleW_59" length="5.453000" accel="2.588000" decel="4.027000" sigma="0.5" minGap="2.427185" maxSpeed="140.208907" guiShape="passenger" />
   <vehicle id="straightW_59" type="vehicleW_59" route="edgeW_edgeE" depart="52" departLane="3" />

   <vType id="vehicleE_60" length="5.267000" accel="2.911000" decel="5.594000" sigma="0.5" minGap="2.427185" maxSpeed="140.208907" guiShape="passenger" />
   <vehicle id="straightE_60" type="vehicleE_60" route="edgeE_edgeW" depart="52" departLane="3" />

   <vType id="vehicleN_61" length="3.965000" accel="3.173000" decel="6.384000" sigma="0.5" minGap="2.427185" maxSpeed="140.208907" guiShape="passenger" />
   <vehicle id="leftN_61" type="vehicleN_61" route="edgeN_edgeE" depart="53" departLane="7" />

   <vType id="vehicleS_62" length="5.612000" accel="2.357000" decel="3.297000" sigma="0.5" minGap="2.427185" maxSpeed="140.208907" guiShape="passenger" />
   <vehicle id="leftS_62" type="vehicleS_62" route="edgeS_edgeW" depart="53" departLane="6" />

   <vType id="vehicleW_63" length="4.199000" accel="2.498000" decel="5.331000" sigma="0.5" minGap="2.427185" maxSpeed="140.208907" guiShape="passenger" />
   <vehicle id="leftW_63" type="vehicleW_63" route="edgeW_edgeN" depart="53" departLane="3" />

   <vType id="vehicleN_64" length="4.995000" accel="3.866000" decel="5.487000" sigma="0.5" minGap="2.427185" maxSpeed="140.208907" guiShape="passenger" />
   <vehicle id="straightN_64" type="vehicleN_64" route="edgeN_edgeS" depart="54" departLane="3" />

   <vType id="vehicleW_65" length="4.479000" accel="3.398000" decel="6.251000" sigma="0.5" minGap="2.427185" maxSpeed="140.208907" guiShape="passenger" />
   <vehicle id="leftW_65" type="vehicleW_65" route="edgeW_edgeN" depart="54" departLane="3" />

   <vType id="vehicleN_66" length="5.389000" accel="2.688000" decel="5.419000" sigma="0.5" minGap="2.427185" maxSpeed="140.208907" guiShape="passenger" />
   <vehicle id="straightN_66" type="vehicleN_66" route="edgeN_edgeS" depart="55" departLane="4" />

   <vType id="vehicleE_67" length="5.305000" accel="2.859000" decel="4.563000" sigma="0.5" minGap="2.427185" maxSpeed="140.208907" guiShape="passenger" />
   <vehicle id="uturnE_67" type="vehicleE_67" route="edgeE_edgeE" depart="55" departLane="3" />

   <vType id="vehicleS_68" length="5.047000" accel="3.646000" decel="5.452000" sigma="0.5" minGap="2.427185" maxSpeed="140.208907" guiShape="passenger" />
   <vehicle id="uturnS_68" type="vehicleS_68" route="edgeS_edgeS" depart="57" departLane="7" />

   <vType id="vehicleE_69" length="5.389000" accel="2.433000" decel="6.007000" sigma="0.5" minGap="2.427185" maxSpeed="140.208907" guiShape="passenger" />
   <vehicle id="rightE_69" type="vehicleE_69" route="edgeE_edgeN" depart="59" departLane="1" />

   <vType id="vehicleE_70" length="4.502000" accel="3.088000" decel="4.329000" sigma="0.5" minGap="2.427185" maxSpeed="140.208907" guiShape="passenger" />
   <vehicle id="straightE_70" type="vehicleE_70" route="edgeE_edgeW" depart="60" departLane="3" />

   <vType id="vehicleN_71" length="5.162000" accel="2.743000" decel="3.231000" sigma="0.5" minGap="2.427185" maxSpeed="140.208907" guiShape="passenger" />
   <vehicle id="rightN_71" type="vehicleN_71" route="edgeN_edgeW" depart="61" departLane="1" />

   <vType id="vehicleS_72" length="4.789000" accel="3.530000" decel="5.398000" sigma="0.5" minGap="2.427185" maxSpeed="140.208907" guiShape="passenger" />
   <vehicle id="straightS_72" type="vehicleS_72" route="edgeS_edgeN" depart="61" departLane="5" />

   <vType id="vehicleE_73" length="4.641000" accel="2.689000" decel="5.314000" sigma="0.5" minGap="2.427185" maxSpeed="140.208907" guiShape="passenger" />
   <vehicle id="straightE_73" type="vehicleE_73" route="edgeE_edgeW" depart="61" departLane="3" />

   <vType id="vehicleN_74" length="4.407000" accel="2.702000" decel="3.583000" sigma="0.5" minGap="2.427185" maxSpeed="140.208907" guiShape="passenger" />
   <vehicle id="straightN_74" type="vehicleN_74" route="edgeN_edgeS" depart="63" departLane="3" />

   <vType id="vehicleS_75" length="4.417000" accel="3.255000" decel="5.620000" sigma="0.5" minGap="2.427185" maxSpeed="140.208907" guiShape="passenger" />
   <vehicle id="straightS_75" type="vehicleS_75" route="edgeS_edgeN" depart="64" departLane="6" />

   <vType id="vehicleE_76" length="4.330000" accel="2.585000" decel="3.244000" sigma="0.5" minGap="2.427185" maxSpeed="140.208907" guiShape="passenger" />
   <vehicle id="leftE_76" type="vehicleE_76" route="edgeE_edgeS" depart="64" departLane="3" />

   <vType id="vehicleN_77" length="4.903000" accel="3.431000" decel="3.601000" sigma="0.5" minGap="2.427185" maxSpeed="140.208907" guiShape="passenger" />
   <vehicle id="uturnN_77" type="vehicleN_77" route="edgeN_edgeN" depart="65" departLane="7" />

   <vType id="vehicleE_78" length="5.583000" accel="3.072000" decel="5.817000" sigma="0.5" minGap="2.427185" maxSpeed="140.208907" guiShape="passenger" />
   <vehicle id="leftE_78" type="vehicleE_78" route="edgeE_edgeS" depart="66" departLane="3" />

   <vType id="vehicleE_79" length="5.597000" accel="2.430000" decel="3.989000" sigma="0.5" minGap="2.427185" maxSpeed="140.208907" guiShape="passenger" />
   <vehicle id="straightE_79" type="vehicleE_79" route="edgeE_edgeW" depart="67" departLane="3" />

   <vType id="vehicleN_80" length="5.001000" accel="3.501000" decel="6.217000" sigma="0.5" minGap="2.427185" maxSpeed="140.208907" guiShape="passenger" />
   <vehicle id="straightN_80" type="vehicleN_80" route="edgeN_edgeS" depart="70" departLane="3" />

   <vType id="vehicleE_81" length="4.900000" accel="2.547000" decel="4.500000" sigma="0.5" minGap="2.427185" maxSpeed="140.208907" guiShape="passenger" />
   <vehicle id="straightE_81" type="vehicleE_81" route="edgeE_edgeW" depart="70" departLane="3" />

   <vType id="vehicleN_82" length="5.172000" accel="3.440000" decel="4.645000" sigma="0.5" minGap="2.427185" maxSpeed="140.208907" guiShape="passenger" />
   <vehicle id="straightN_82" type="vehicleN_82" route="edgeN_edgeS" depart="71" departLane="3" />

   <vType id="vehicleE_83" length="4.471000" accel="3.515000" decel="5.012000" sigma="0.5" minGap="2.427185" maxSpeed="140.208907" guiShape="passenger" />
   <vehicle id="leftE_83" type="vehicleE_83" route="edgeE_edgeS" depart="73" departLane="3" />

   <vType id="vehicleN_84" length="4.700000" accel="3.269000" decel="6.032000" sigma="0.5" minGap="2.427185" maxSpeed="140.208907" guiShape="passenger" />
   <vehicle id="straightN_84" type="vehicleN_84" route="edgeN_edgeS" depart="75" departLane="4" />

   <vType id="vehicleW_85" length="5.115000" accel="3.697000" decel="5.069000" sigma="0.5" minGap="2.427185" maxSpeed="140.208907" guiShape="passenger" />
   <vehicle id="straightW_85" type="vehicleW_85" route="edgeW_edgeE" depart="75" departLane="2" />

   <vType id="vehicleW_86" length="4.757000" accel="3.356000" decel="6.117000" sigma="0.5" minGap="2.427185" maxSpeed="140.208907" guiShape="passenger" />
   <vehicle id="straightW_86" type="vehicleW_86" route="edgeW_edgeE" depart="76" departLane="2" />

   <vType id="vehicleW_87" length="4.654000" accel="3.101000" decel="5.309000" sigma="0.5" minGap="2.427185" maxSpeed="140.208907" guiShape="passenger" />
   <vehicle id="leftW_87" type="vehicleW_87" route="edgeW_edgeN" depart="78" departLane="3" />

   <vType id="vehicleE_88" length="4.641000" accel="3.132000" decel="6.346000" sigma="0.5" minGap="2.427185" maxSpeed="140.208907" guiShape="passenger" />
   <vehicle id="uturnE_88" type="vehicleE_88" route="edgeE_edgeE" depart="79" departLane="3" />

   <vType id="vehicleE_89" length="5.259000" accel="3.313000" decel="5.619000" sigma="0.5" minGap="2.427185" maxSpeed="140.208907" guiShape="passenger" />
   <vehicle id="straightE_89" type="vehicleE_89" route="edgeE_edgeW" depart="80" departLane="2" />

   <vType id="vehicleN_90" length="4.437000" accel="3.731000" decel="4.743000" sigma="0.5" minGap="2.427185" maxSpeed="140.208907" guiShape="passenger" />
   <vehicle id="leftN_90" type="vehicleN_90" route="edgeN_edgeE" depart="81" departLane="6" />

   <vType id="vehicleE_91" length="4.898000" accel="3.194000" decel="3.496000" sigma="0.5" minGap="2.427185" maxSpeed="140.208907" guiShape="passenger" />
   <vehicle id="leftE_91" type="vehicleE_91" route="edgeE_edgeS" depart="81" departLane="3" />

   <vType id="vehicleS_92" length="4.806000" accel="3.462000" decel="4.820000" sigma="0.5" minGap="2.427185" maxSpeed="140.208907" guiShape="passenger" />
   <vehicle id="rightS_92" type="vehicleS_92" route="edgeS_edgeE" depart="82" departLane="2" />

   <vType id="vehicleW_93" length="4.983000" accel="3.511000" decel="3.633000" sigma="0.5" minGap="2.427185" maxSpeed="140.208907" guiShape="passenger" />
   <vehicle id="leftW_93" type="vehicleW_93" route="edgeW_edgeN" depart="83" departLane="3" />

   <vType id="vehicleE_94" length="4.660000" accel="3.818000" decel="4.816000" sigma="0.5" minGap="2.427185" maxSpeed="140.208907" guiShape="passenger" />
   <vehicle id="straightE_94" type="vehicleE_94" route="edgeE_edgeW" depart="83" departLane="2" />

   <vType id="vehicleN_95" length="4.961000" accel="3.924000" decel="4.758000" sigma="0.5" minGap="2.427185" maxSpeed="140.208907" guiShape="passenger" />
   <vehicle id="straightN_95" type="vehicleN_95" route="edgeN_edgeS" depart="84" departLane="3" />

   <vType id="vehicleE_96" length="4.593000" accel="3.816000" decel="5.969000" sigma="0.5" minGap="2.427185" maxSpeed="140.208907" guiShape="passenger" />
   <vehicle id="straightE_96" type="vehicleE_96" route="edgeE_edgeW" depart="84" departLane="2" />

   <vType id="vehicleS_97" length="4.008000" accel="3.508000" decel="5.445000" sigma="0.5" minGap="2.427185" maxSpeed="140.208907" guiShape="passenger" />
   <vehicle id="rightS_97" type="vehicleS_97" route="edgeS_edgeE" depart="85" departLane="2" />

   <vType id="vehicleE_98" length="4.967000" accel="3.713000" decel="5.983000" sigma="0.5" minGap="2.427185" maxSpeed="140.208907" guiShape="passenger" />
   <vehicle id="straightE_98" type="vehicleE_98" route="edgeE_edgeW" depart="86" departLane="3" />

   <vType id="vehicleN_99" length="3.958000" accel="2.527000" decel="5.973000" sigma="0.5" minGap="2.427185" maxSpeed="140.208907" guiShape="passenger" />
   <vehicle id="uturnN_99" type="vehicleN_99" route="edgeN_edgeN" depart="87" departLane="7" />

   <vType id="vehicleW_100" length="4.396000" accel="3.310000" decel="4.465000" sigma="0.5" minGap="2.427185" maxSpeed="140.208907" guiShape="passenger" />
   <vehicle id="straightW_100" type="vehicleW_100" route="edgeW_edgeE" depart="87" departLane="2" />

   <vType id="vehicleE_101" length="5.264000" accel="3.717000" decel="3.313000" sigma="0.5" minGap="2.427185" maxSpeed="140.208907" guiShape="passenger" />
   <vehicle id="straightE_101" type="vehicleE_101" route="edgeE_edgeW" depart="88" departLane="2" />

   <vType id="vehicleN_102" length="4.436000" accel="2.663000" decel="3.487000" sigma="0.5" minGap="2.427185" maxSpeed="140.208907" guiShape="passenger" />
   <vehicle id="straightN_102" type="vehicleN_102" route="edgeN_edgeS" depart="89" departLane="2" />

   <vType id="vehicleE_103" length="4.457000" accel="2.339000" decel="4.232000" sigma="0.5" minGap="2.427185" maxSpeed="140.208907" guiShape="passenger" />
   <vehicle id="leftE_103" type="vehicleE_103" route="edgeE_edgeS" depart="89" departLane="3" />

   <vType id="vehicleN_104" length="4.187000" accel="3.159000" decel="5.001000" sigma="0.5" minGap="2.427185" maxSpeed="140.208907" guiShape="passenger" />
   <vehicle id="straightN_104" type="vehicleN_104" route="edgeN_edgeS" depart="90" departLane="3" />

   <vType id="vehicleS_105" length="5.460000" accel="3.304000" decel="3.966000" sigma="0.5" minGap="2.427185" maxSpeed="140.208907" guiShape="passenger" />
   <vehicle id="leftS_105" type="vehicleS_105" route="edgeS_edgeW" depart="90" departLane="6" />

   <vType id="vehicleN_106" length="4.061000" accel="3.836000" decel="6.345000" sigma="0.5" minGap="2.427185" maxSpeed="140.208907" guiShape="passenger" />
   <vehicle id="straightN_106" type="vehicleN_106" route="edgeN_edgeS" depart="92" departLane="4" />

   <vType id="vehicleE_107" length="4.281000" accel="2.920000" decel="4.738000" sigma="0.5" minGap="2.427185" maxSpeed="140.208907" guiShape="passenger" />
   <vehicle id="straightE_107" type="vehicleE_107" route="edgeE_edgeW" depart="92" departLane="2" />

   <vType id="vehicleN_108" length="4.626000" accel="2.305000" decel="5.954000" sigma="0.5" minGap="2.427185" maxSpeed="140.208907" guiShape="passenger" />
   <vehicle id="rightN_108" type="vehicleN_108" route="edgeN_edgeW" depart="94" departLane="1" />

   <vType id="vehicleN_109" length="4.371000" accel="3.526000" decel="5.643000" sigma="0.5" minGap="2.427185" maxSpeed="140.208907" guiShape="passenger" />