<?xml version="1.0" encoding="UTF-8"?>

<!-- generated on 2021-10-22 21:59:04 by Eclipse SUMO netconvert Version 1.10.0
<configuration xmlns:xsi="http://www.w3.org/2001/XMLSchema-instance" xsi:noNamespaceSchemaLocation="http://sumo.dlr.de/xsd/netconvertConfiguration.xsd">

    <input>
        <node-files value="data/cross.nod.xml"/>
        <edge-files value="data/cross.edg.xml"/>
        <connection-files value="data/cross.con.xml"/>
    </input>

    <output>
        <output-file value="data/cross.net.xml"/>
    </output>

    <junctions>
        <no-turnarounds.except-turnlane value="true"/>
    </junctions>

    <report>
        <aggregate-warnings value="5"/>
    </report>

</configuration>
-->

<net version="1.9" junctionCornerDetail="5" limitTurnSpeed="5.50" xmlns:xsi="http://www.w3.org/2001/XMLSchema-instance" xsi:noNamespaceSchemaLocation="http://sumo.dlr.de/xsd/net_file.xsd">

    <location netOffset="500.00,500.00" convBoundary="0.00,0.00,1000.00,1000.00" origBoundary="-500.00,-500.00,500.00,500.00" projParameter="!"/>

    <edge id=":juncE_0" function="internal">
        <lane id=":juncE_0_0" index="0" disallow="pedestrian" speed="3.65" length="4.67" shape="1000.00,498.40 1001.20,499.20 1001.60,500.00 1001.20,500.80 1000.00,501.60"/>
    </edge>
    <edge id=":juncE_w0" function="walkingarea">
        <lane id=":juncE_w0_0" index="0" allow="pedestrian" speed="1.00" length="131.20" width="3.20" shape="1000.00,564.00 1000.00,567.20 1000.00,432.80 1000.00,436.00"/>
    </edge>
    <edge id=":juncMain_0" function="internal">
        <lane id=":juncMain_0_0" index="0" disallow="pedestrian" speed="6.86" length="5.93" shape="437.60,568.70 437.21,565.94 436.02,563.98 435.30,563.54"/>
        <lane id=":juncMain_0_1" index="1" disallow="pedestrian" speed="7.64" length="8.35" shape="437.60,568.70 437.21,564.54 436.02,561.58 435.30,560.92"/>
    </edge>
    <edge id=":juncMain_2" function="internal">
        <lane id=":juncMain_2_0" index="0" disallow="pedestrian" speed="15.00" length="137.40" shape="437.60,568.70 437.60,431.30"/>
        <lane id=":juncMain_2_1" index="1" disallow="pedestrian" speed="15.00" length="137.40" shape="440.80,568.70 440.80,431.30"/>
        <lane id=":juncMain_2_2" index="2" disallow="pedestrian" speed="15.00" length="137.40" shape="444.00,568.70 444.00,431.30"/>
    </edge>
    <edge id=":juncMain_5" function="internal">
        <lane id=":juncMain_5_0" index="0" disallow="pedestrian" speed="15.00" length="128.15" shape="444.00,568.70 554.40,503.63"/>
        <lane id=":juncMain_5_1" index="1" disallow="pedestrian" speed="15.00" length="126.74" shape="444.00,568.70 554.40,506.46"/>
        <lane id=":juncMain_5_2" index="2" disallow="pedestrian" speed="15.00" length="125.29" shape="447.20,568.70 554.40,503.85"/>
        <lane id=":juncMain_5_3" index="3" disallow="pedestrian" speed="15.00" length="123.85" shape="447.20,568.70 554.40,506.67"/>
        <lane id=":juncMain_5_4" index="4" disallow="pedestrian" speed="15.00" length="122.44" shape="450.40,568.70 554.40,504.08"/>
        <lane id=":juncMain_5_5" index="5" disallow="pedestrian" speed="15.00" length="120.98" shape="450.40,568.70 554.40,506.90"/>
        <lane id=":juncMain_5_6" index="6" disallow="pedestrian" speed="15.00" length="119.60" shape="453.60,568.70 554.40,504.33"/>
        <lane id=":juncMain_5_7" index="7" disallow="pedestrian" speed="15.00" length="118.11" shape="453.60,568.70 554.40,507.13"/>
        <lane id=":juncMain_5_8" index="8" disallow="pedestrian" speed="15.00" length="116.77" shape="456.80,568.70 554.40,504.59"/>
        <lane id=":juncMain_5_9" index="9" disallow="pedestrian" speed="15.00" length="115.26" shape="456.80,568.70 554.40,507.38"/>
        <lane id=":juncMain_5_10" index="10" disallow="pedestrian" speed="15.00" length="113.95" shape="460.00,568.70 554.40,504.87"/>
        <lane id=":juncMain_5_11" index="11" disallow="pedestrian" speed="15.00" length="112.42" shape="460.00,568.70 554.40,507.65"/>
        <lane id=":juncMain_5_12" index="12" disallow="pedestrian" speed="15.00" length="111.15" shape="463.20,568.70 554.40,505.16"/>
        <lane id=":juncMain_5_13" index="13" disallow="pedestrian" speed="15.00" length="109.59" shape="463.20,568.70 554.40,507.93"/>
        <lane id=":juncMain_5_14" index="14" disallow="pedestrian" speed="15.00" length="108.36" shape="466.40,568.70 554.40,505.47"/>
        <lane id=":juncMain_5_15" index="15" disallow="pedestrian" speed="15.00" length="106.78" shape="466.40,568.70 554.40,508.23"/>
        <lane id=":juncMain_5_16" index="16" disallow="pedestrian" speed="15.00" length="125.41" shape="469.60,568.70 475.79,536.54 494.38,513.57 525.34,499.79 554.40,496.72"/>
        <lane id=":juncMain_5_17" index="17" disallow="pedestrian" speed="15.00" length="123.01" shape="469.60,568.70 475.79,537.94 494.38,515.98 525.34,502.79 554.40,499.85"/>
        <lane id=":juncMain_5_18" index="18" disallow="pedestrian" speed="15.00" length="122.69" shape="472.80,568.70 478.79,536.54 496.78,513.57 526.74,499.79 554.40,496.77"/>
        <lane id=":juncMain_5_19" index="19" disallow="pedestrian" speed="15.00" length="120.27" shape="472.80,568.70 478.79,537.94 496.78,515.98 526.74,502.79 554.40,499.90"/>
        <lane id=":juncMain_5_20" index="20" disallow="pedestrian" speed="15.00" length="119.98" shape="476.00,568.70 481.79,536.54 499.18,513.57 528.14,499.79 554.40,496.82"/>
        <lane id=":juncMain_5_21" index="21" disallow="pedestrian" speed="15.00" length="117.55" shape="476.00,568.70 481.79,537.94 499.18,515.98 528.14,502.79 554.40,499.95"/>
        <lane id=":juncMain_5_22" index="22" disallow="pedestrian" speed="15.00" length="117.29" shape="479.20,568.70 484.79,536.54 501.57,513.57 529.54,499.79 554.40,496.88"/>
        <lane id=":juncMain_5_23" index="23" disallow="pedestrian" speed="15.00" length="114.84" shape="479.20,568.70 484.79,537.94 501.57,515.98 529.54,502.79 554.40,500.00"/>
        <lane id=":juncMain_5_24" index="24" disallow="pedestrian" speed="15.00" length="114.62" shape="482.40,568.70 487.79,536.54 503.97,513.57 530.94,499.79 554.40,496.94"/>
        <lane id=":juncMain_5_25" index="25" disallow="pedestrian" speed="15.00" length="112.14" shape="482.40,568.70 487.79,537.94 503.97,515.98 530.94,502.79 554.40,500.06"/>
        <lane id=":juncMain_5_26" index="26" disallow="pedestrian" speed="15.00" length="111.96" shape="485.60,568.70 490.79,536.54 506.38,513.57 532.34,499.79 554.40,497.01"/>
        <lane id=":juncMain_5_27" index="27" disallow="pedestrian" speed="15.00" length="109.46" shape="485.60,568.70 490.79,537.94 506.38,515.98 532.34,502.79 554.40,500.13"/>
        <lane id=":juncMain_5_28" index="28" disallow="pedestrian" speed="15.00" length="109.32" shape="488.80,568.70 493.79,536.54 508.78,513.57 533.74,499.79 554.40,497.08"/>
        <lane id=":juncMain_5_29" index="29" disallow="pedestrian" speed="15.00" length="106.80" shape="488.80,568.70 493.79,537.94 508.78,515.98 533.74,502.79 554.40,500.20"/>
        <lane id=":juncMain_5_30" index="30" disallow="pedestrian" speed="15.00" length="106.70" shape="492.00,568.70 496.79,536.54 511.18,513.57 535.14,499.79 554.40,497.16"/>
        <lane id=":juncMain_5_31" index="31" disallow="pedestrian" speed="15.00" length="104.16" shape="492.00,568.70 496.79,537.94 511.18,515.98 535.14,502.79 554.40,500.27"/>
        <lane id=":juncMain_5_32" index="32" disallow="pedestrian" speed="15.00" length="104.09" shape="495.20,568.70 499.79,536.54 513.58,513.57 536.54,499.79 554.40,497.24"/>
        <lane id=":juncMain_5_33" index="33" disallow="pedestrian" speed="15.00" length="101.54" shape="495.20,568.70 499.79,537.94 513.58,515.98 536.54,502.79 554.40,500.35"/>
        <lane id=":juncMain_5_34" index="34" disallow="pedestrian" speed="15.00" length="101.51" shape="498.40,568.70 502.79,536.54 515.97,513.57 537.94,499.79 554.40,497.34"/>
        <lane id=":juncMain_5_35" index="35" disallow="pedestrian" speed="15.00" length="98.93" shape="498.40,568.70 502.79,537.94 515.97,515.98 537.94,502.79 554.40,500.44"/>
    </edge>
    <edge id=":juncMain_41" function="internal">
        <lane id=":juncMain_41_0" index="0" disallow="pedestrian" speed="3.65" length="2.34" shape="498.40,568.70 499.20,567.50 500.00,567.10"/>
    </edge>
    <edge id=":juncMain_168" function="internal">
        <lane id=":juncMain_168_0" index="0" disallow="pedestrian" speed="6.86" length="4.23" shape="435.30,563.54 434.06,562.79 431.30,562.40"/>
    </edge>
    <edge id=":juncMain_169" function="internal">
        <lane id=":juncMain_169_0" index="0" disallow="pedestrian" speed="7.64" length="4.50" shape="435.30,560.92 434.06,559.79 431.30,559.20"/>
    </edge>
    <edge id=":juncMain_170" function="internal">
        <lane id=":juncMain_170_0" index="0" disallow="pedestrian" speed="15.00" length="16.60" shape="554.40,503.63 568.70,495.20"/>
    </edge>
    <edge id=":juncMain_171" function="internal">
        <lane id=":juncMain_171_0" index="0" disallow="pedestrian" speed="15.00" length="16.42" shape="554.40,506.46 568.70,498.40"/>
    </edge>
    <edge id=":juncMain_172" function="internal">
        <lane id=":juncMain_172_0" index="0" disallow="pedestrian" speed="15.00" length="16.71" shape="554.40,503.85 568.70,495.20"/>
    </edge>
    <edge id=":juncMain_173" function="internal">
        <lane id=":juncMain_173_0" index="0" disallow="pedestrian" speed="15.00" length="16.52" shape="554.40,506.67 568.70,498.40"/>
    </edge>
    <edge id=":juncMain_174" function="internal">
        <lane id=":juncMain_174_0" index="0" disallow="pedestrian" speed="15.00" length="16.84" shape="554.40,504.08 568.70,495.20"/>
    </edge>
    <edge id=":juncMain_175" function="internal">
        <lane id=":juncMain_175_0" index="0" disallow="pedestrian" speed="15.00" length="16.63" shape="554.40,506.90 568.70,498.40"/>
    </edge>
    <edge id=":juncMain_176" function="internal">
        <lane id=":juncMain_176_0" index="0" disallow="pedestrian" speed="15.00" length="16.97" shape="554.40,504.33 568.70,495.20"/>
    </edge>
    <edge id=":juncMain_177" function="internal">
        <lane id=":juncMain_177_0" index="0" disallow="pedestrian" speed="15.00" length="16.76" shape="554.40,507.13 568.70,498.40"/>
    </edge>
    <edge id=":juncMain_178" function="internal">
        <lane id=":juncMain_178_0" index="0" disallow="pedestrian" speed="15.00" length="17.11" shape="554.40,504.59 568.70,495.20"/>
    </edge>
    <edge id=":juncMain_179" function="internal">
        <lane id=":juncMain_179_0" index="0" disallow="pedestrian" speed="15.00" length="16.89" shape="554.40,507.38 568.70,498.40"/>
    </edge>
    <edge id=":juncMain_180" function="internal">
        <lane id=":juncMain_180_0" index="0" disallow="pedestrian" speed="15.00" length="17.26" shape="554.40,504.87 568.70,495.20"/>
    </edge>
    <edge id=":juncMain_181" function="internal">
        <lane id=":juncMain_181_0" index="0" disallow="pedestrian" speed="15.00" length="17.03" shape="554.40,507.65 568.70,498.40"/>
    </edge>
    <edge id=":juncMain_182" function="internal">
        <lane id=":juncMain_182_0" index="0" disallow="pedestrian" speed="15.00" length="17.43" shape="554.40,505.16 568.70,495.20"/>
    </edge>
    <edge id=":juncMain_183" function="internal">
        <lane id=":juncMain_183_0" index="0" disallow="pedestrian" speed="15.00" length="17.18" shape="554.40,507.93 568.70,498.40"/>
    </edge>
    <edge id=":juncMain_184" function="internal">
        <lane id=":juncMain_184_0" index="0" disallow="pedestrian" speed="15.00" length="17.61" shape="554.40,505.47 568.70,495.20"/>
    </edge>
    <edge id=":juncMain_185" function="internal">
        <lane id=":juncMain_185_0" index="0" disallow="pedestrian" speed="15.00" length="17.35" shape="554.40,508.23 568.70,498.40"/>
    </edge>
    <edge id=":juncMain_186" function="internal">
        <lane id=":juncMain_186_0" index="0" disallow="pedestrian" speed="15.00" length="14.38" shape="554.40,496.72 568.70,495.20"/>
    </edge>
    <edge id=":juncMain_187" function="internal">
        <lane id=":juncMain_187_0" index="0" disallow="pedestrian" speed="15.00" length="14.37" shape="554.40,499.85 568.70,498.40"/>
    </edge>
    <edge id=":juncMain_188" function="internal">
        <lane id=":juncMain_188_0" index="0" disallow="pedestrian" speed="15.00" length="14.39" shape="554.40,496.77 568.70,495.20"/>
    </edge>
    <edge id=":juncMain_189" function="internal">
        <lane id=":juncMain_189_0" index="0" disallow="pedestrian" speed="15.00" length="14.38" shape="554.40,499.90 568.70,498.40"/>
    </edge>
    <edge id=":juncMain_190" function="internal">
        <lane id=":juncMain_190_0" index="0" disallow="pedestrian" speed="15.00" length="14.39" shape="554.40,496.82 568.70,495.20"/>
    </edge>
    <edge id=":juncMain_191" function="internal">
        <lane id=":juncMain_191_0" index="0" disallow="pedestrian" speed="15.00" length="14.38" shape="554.40,499.95 568.70,498.40"/>
    </edge>
    <edge id=":juncMain_192" function="internal">
        <lane id=":juncMain_192_0" index="0" disallow="pedestrian" speed="15.00" length="14.40" shape="554.40,496.88 568.70,495.20"/>
    </edge>
    <edge id=":juncMain_193" function="internal">
        <lane id=":juncMain_193_0" index="0" disallow="pedestrian" speed="15.00" length="14.39" shape="554.40,500.00 568.70,498.40"/>
    </edge>
    <edge id=":juncMain_194" function="internal">
        <lane id=":juncMain_194_0" index="0" disallow="pedestrian" speed="15.00" length="14.41" shape="554.40,496.94 568.70,495.20"/>
    </edge>
    <edge id=":juncMain_195" function="internal">
        <lane id=":juncMain_195_0" index="0" disallow="pedestrian" speed="15.00" length="14.40" shape="554.40,500.06 568.70,498.40"/>
    </edge>
    <edge id=":juncMain_196" function="internal">
        <lane id=":juncMain_196_0" index="0" disallow="pedestrian" speed="15.00" length="14.41" shape="554.40,497.01 568.70,495.20"/>
    </edge>
    <edge id=":juncMain_197" function="internal">
        <lane id=":juncMain_197_0" index="0" disallow="pedestrian" speed="15.00" length="14.40" shape="554.40,500.13 568.70,498.40"/>
    </edge>
    <edge id=":juncMain_198" function="internal">
        <lane id=":juncMain_198_0" index="0" disallow="pedestrian" speed="15.00" length="14.42" shape="554.40,497.08 568.70,495.20"/>
    </edge>
    <edge id=":juncMain_199" function="internal">
        <lane id=":juncMain_199_0" index="0" disallow="pedestrian" speed="15.00" length="14.41" shape="554.40,500.20 568.70,498.40"/>
    </edge>
    <edge id=":juncMain_200" function="internal">
        <lane id=":juncMain_200_0" index="0" disallow="pedestrian" speed="15.00" length="14.43" shape="554.40,497.16 568.70,495.20"/>
    </edge>
    <edge id=":juncMain_201" function="internal">
        <lane id=":juncMain_201_0" index="0" disallow="pedestrian" speed="15.00" length="14.42" shape="554.40,500.27 568.70,498.40"/>
    </edge>
    <edge id=":juncMain_202" function="internal">
        <lane id=":juncMain_202_0" index="0" disallow="pedestrian" speed="15.00" length="14.45" shape="554.40,497.24 568.70,495.20"/>
    </edge>
    <edge id=":juncMain_203" function="internal">
        <lane id=":juncMain_203_0" index="0" disallow="pedestrian" speed="15.00" length="14.43" shape="554.40,500.35 568.70,498.40"/>
    </edge>
    <edge id=":juncMain_204" function="internal">
        <lane id=":juncMain_204_0" index="0" disallow="pedestrian" speed="15.00" length="14.46" shape="554.40,497.34 568.70,495.20"/>
    </edge>
    <edge id=":juncMain_205" function="internal">
        <lane id=":juncMain_205_0" index="0" disallow="pedestrian" speed="15.00" length="14.45" shape="554.40,500.44 568.70,498.40"/>
    </edge>
    <edge id=":juncMain_206" function="internal">
        <lane id=":juncMain_206_0" index="0" disallow="pedestrian" speed="3.65" length="2.34" shape="500.00,567.10 500.80,567.50 501.60,568.70"/>
    </edge>
    <edge id=":juncMain_42" function="internal">
        <lane id=":juncMain_42_0" index="0" disallow="pedestrian" speed="6.86" length="5.93" shape="568.70,562.40 565.94,562.79 563.98,563.97 563.54,564.70"/>
        <lane id=":juncMain_42_1" index="1" disallow="pedestrian" speed="7.64" length="8.35" shape="568.70,562.40 564.54,562.79 561.58,563.97 560.92,564.70"/>
    </edge>
    <edge id=":juncMain_44" function="internal">
        <lane id=":juncMain_44_0" index="0" disallow="pedestrian" speed="15.00" length="137.40" shape="568.70,562.40 431.30,562.40"/>
        <lane id=":juncMain_44_1" index="1" disallow="pedestrian" speed="15.00" length="137.40" shape="568.70,559.20 431.30,559.20"/>
        <lane id=":juncMain_44_2" index="2" disallow="pedestrian" speed="15.00" length="137.40" shape="568.70,556.00 431.30,556.00"/>
    </edge>
    <edge id=":juncMain_47" function="internal">
        <lane id=":juncMain_47_0" index="0" disallow="pedestrian" speed="15.00" length="128.15" shape="568.70,556.00 503.63,445.60"/>
        <lane id=":juncMain_47_1" index="1" disallow="pedestrian" speed="15.00" length="126.74" shape="568.70,556.00 506.46,445.60"/>
        <lane id=":juncMain_47_2" index="2" disallow="pedestrian" speed="15.00" length="125.29" shape="568.70,552.80 503.85,445.60"/>
        <lane id=":juncMain_47_3" index="3" disallow="pedestrian" speed="15.00" length="123.85" shape="568.70,552.80 506.67,445.60"/>
        <lane id=":juncMain_47_4" index="4" disallow="pedestrian" speed="15.00" length="122.44" shape="568.70,549.60 504.08,445.60"/>
        <lane id=":juncMain_47_5" index="5" disallow="pedestrian" speed="15.00" length="120.98" shape="568.70,549.60 506.90,445.60"/>
        <lane id=":juncMain_47_6" index="6" disallow="pedestrian" speed="15.00" length="119.60" shape="568.70,546.40 504.33,445.60"/>
        <lane id=":juncMain_47_7" index="7" disallow="pedestrian" speed="15.00" length="118.11" shape="568.70,546.40 507.13,445.60"/>
        <lane id=":juncMain_47_8" index="8" disallow="pedestrian" speed="15.00" length="116.77" shape="568.70,543.20 504.59,445.60"/>
        <lane id=":juncMain_47_9" index="9" disallow="pedestrian" speed="15.00" length="115.26" shape="568.70,543.20 507.38,445.60"/>
        <lane id=":juncMain_47_10" index="10" disallow="pedestrian" speed="15.00" length="113.95" shape="568.70,540.00 504.87,445.60"/>
        <lane id=":juncMain_47_11" index="11" disallow="pedestrian" speed="15.00" length="112.42" shape="568.70,540.00 507.65,445.60"/>
        <lane id=":juncMain_47_12" index="12" disallow="pedestrian" speed="15.00" length="111.15" shape="568.70,536.80 505.16,445.60"/>
        <lane id=":juncMain_47_13" index="13" disallow="pedestrian" speed="15.00" length="109.59" shape="568.70,536.80 507.93,445.60"/>
        <lane id=":juncMain_47_14" index="14" disallow="pedestrian" speed="15.00" length="108.36" shape="568.70,533.60 505.47,445.60"/>
        <lane id=":juncMain_47_15" index="15" disallow="pedestrian" speed="15.00" length="106.78" shape="568.70,533.60 508.23,445.60"/>
        <lane id=":juncMain_47_16" index="16" disallow="pedestrian" speed="15.00" length="125.41" shape="568.70,530.40 536.54,524.21 513.57,505.62 499.79,474.66 496.72,445.60"/>
        <lane id=":juncMain_47_17" index="17" disallow="pedestrian" speed="15.00" length="123.01" shape="568.70,530.40 537.94,524.21 515.98,505.62 502.79,474.66 499.85,445.60"/>
        <lane id=":juncMain_47_18" index="18" disallow="pedestrian" speed="15.00" length="122.69" shape="568.70,527.20 536.54,521.21 513.57,503.23 499.79,473.26 496.77,445.60"/>
        <lane id=":juncMain_47_19" index="19" disallow="pedestrian" speed="15.00" length="120.27" shape="568.70,527.20 537.94,521.21 515.98,503.23 502.79,473.26 499.90,445.60"/>
        <lane id=":juncMain_47_20" index="20" disallow="pedestrian" speed="15.00" length="119.98" shape="568.70,524.00 536.54,518.21 513.57,500.82 499.79,471.86 496.82,445.60"/>
        <lane id=":juncMain_47_21" index="21" disallow="pedestrian" speed="15.00" length="117.55" shape="568.70,524.00 537.94,518.21 515.98,500.82 502.79,471.86 499.95,445.60"/>
        <lane id=":juncMain_47_22" index="22" disallow="pedestrian" speed="15.00" length="117.29" shape="568.70,520.80 536.54,515.21 513.57,498.42 499.79,470.46 496.88,445.60"/>
        <lane id=":juncMain_47_23" index="23" disallow="pedestrian" speed="15.00" length="114.84" shape="568.70,520.80 537.94,515.21 515.98,498.42 502.79,470.46 500.00,445.60"/>
        <lane id=":juncMain_47_24" index="24" disallow="pedestrian" speed="15.00" length="114.62" shape="568.70,517.60 536.54,512.21 513.57,496.03 499.79,469.06 496.94,445.60"/>
        <lane id=":juncMain_47_25" index="25" disallow="pedestrian" speed="15.00" length="112.14" shape="568.70,517.60 537.94,512.21 515.98,496.03 502.79,469.06 500.06,445.60"/>
        <lane id=":juncMain_47_26" index="26" disallow="pedestrian" speed="15.00" length="111.96" shape="568.70,514.40 536.54,509.21 513.57,493.62 499.79,467.66 497.01,445.60"/>
        <lane id=":juncMain_47_27" index="27" disallow="pedestrian" speed="15.00" length="109.46" shape="568.70,514.40 537.94,509.21 515.98,493.62 502.79,467.66 500.13,445.60"/>
        <lane id=":juncMain_47_28" index="28" disallow="pedestrian" speed="15.00" length="109.32" shape="568.70,511.20 536.54,506.21 513.57,491.22 499.79,466.26 497.08,445.60"/>
        <lane id=":juncMain_47_29" index="29" disallow="pedestrian" speed="15.00" length="106.80" shape="568.70,511.20 537.94,506.21 515.98,491.22 502.79,466.26 500.20,445.60"/>
        <lane id=":juncMain_47_30" index="30" disallow="pedestrian" speed="15.00" length="106.70" shape="568.70,508.00 536.54,503.21 513.57,488.82 499.79,464.86 497.16,445.60"/>
        <lane id=":juncMain_47_31" index="31" disallow="pedestrian" speed="15.00" length="104.16" shape="568.70,508.00 537.94,503.21 515.98,488.82 502.79,464.86 500.27,445.60"/>
        <lane id=":juncMain_47_32" index="32" disallow="pedestrian" speed="15.00" length="104.09" shape="568.70,504.80 536.54,500.21 513.57,486.43 499.79,463.46 497.24,445.60"/>
        <lane id=":juncMain_47_33" index="33" disallow="pedestrian" speed="15.00" length="101.54" shape="568.70,504.80 537.94,500.21 515.98,486.43 502.79,463.46 500.35,445.60"/>
        <lane id=":juncMain_47_34" index="34" disallow="pedestrian" speed="15.00" length="101.51" shape="568.70,501.60 536.54,497.21 513.57,484.03 499.79,462.06 497.34,445.60"/>
        <lane id=":juncMain_47_35" index="35" disallow="pedestrian" speed="15.00" length="98.93" shape="568.70,501.60 537.94,497.21 515.98,484.03 502.79,462.06 500.44,445.60"/>
    </edge>
    <edge id=":juncMain_83" function="internal">
        <lane id=":juncMain_83_0" index="0" disallow="pedestrian" speed="3.65" length="2.34" shape="568.70,501.60 567.50,500.80 567.10,500.00"/>
    </edge>
    <edge id=":juncMain_207" function="internal">
        <lane id=":juncMain_207_0" index="0" disallow="pedestrian" speed="6.86" length="4.23" shape="563.54,564.70 562.79,565.94 562.40,568.70"/>
    </edge>
    <edge id=":juncMain_208" function="internal">
        <lane id=":juncMain_208_0" index="0" disallow="pedestrian" speed="7.64" length="4.50" shape="560.92,564.70 559.79,565.94 559.20,568.70"/>
    </edge>
    <edge id=":juncMain_209" function="internal">
        <lane id=":juncMain_209_0" index="0" disallow="pedestrian" speed="15.00" length="16.60" shape="503.63,445.60 495.20,431.30"/>
    </edge>
    <edge id=":juncMain_210" function="internal">
        <lane id=":juncMain_210_0" index="0" disallow="pedestrian" speed="15.00" length="16.42" shape="506.46,445.60 498.40,431.30"/>
    </edge>
    <edge id=":juncMain_211" function="internal">
        <lane id=":juncMain_211_0" index="0" disallow="pedestrian" speed="15.00" length="16.71" shape="503.85,445.60 495.20,431.30"/>
    </edge>
    <edge id=":juncMain_212" function="internal">
        <lane id=":juncMain_212_0" index="0" disallow="pedestrian" speed="15.00" length="16.52" shape="506.67,445.60 498.40,431.30"/>
    </edge>
    <edge id=":juncMain_213" function="internal">
        <lane id=":juncMain_213_0" index="0" disallow="pedestrian" speed="15.00" length="16.84" shape="504.08,445.60 495.20,431.30"/>
    </edge>
    <edge id=":juncMain_214" function="internal">
        <lane id=":juncMain_214_0" index="0" disallow="pedestrian" speed="15.00" length="16.63" shape="506.90,445.60 498.40,431.30"/>
    </edge>
    <edge id=":juncMain_215" function="internal">
        <lane id=":juncMain_215_0" index="0" disallow="pedestrian" speed="15.00" length="16.97" shape="504.33,445.60 495.20,431.30"/>
    </edge>
    <edge id=":juncMain_216" function="internal">
        <lane id=":juncMain_216_0" index="0" disallow="pedestrian" speed="15.00" length="16.76" shape="507.13,445.60 498.40,431.30"/>
    </edge>
    <edge id=":juncMain_217" function="internal">
        <lane id=":juncMain_217_0" index="0" disallow="pedestrian" speed="15.00" length="17.11" shape="504.59,445.60 495.20,431.30"/>
    </edge>
    <edge id=":juncMain_218" function="internal">
        <lane id=":juncMain_218_0" index="0" disallow="pedestrian" speed="15.00" length="16.89" shape="507.38,445.60 498.40,431.30"/>
    </edge>
    <edge id=":juncMain_219" function="internal">
        <lane id=":juncMain_219_0" index="0" disallow="pedestrian" speed="15.00" length="17.26" shape="504.87,445.60 495.20,431.30"/>
    </edge>
    <edge id=":juncMain_220" function="internal">
        <lane id=":juncMain_220_0" index="0" disallow="pedestrian" speed="15.00" length="17.03" shape="507.65,445.60 498.40,431.30"/>
    </edge>
    <edge id=":juncMain_221" function="internal">
        <lane id=":juncMain_221_0" index="0" disallow="pedestrian" speed="15.00" length="17.43" shape="505.16,445.60 495.20,431.30"/>
    </edge>
    <edge id=":juncMain_222" function="internal">
        <lane id=":juncMain_222_0" index="0" disallow="pedestrian" speed="15.00" length="17.18" shape="507.93,445.60 498.40,431.30"/>
    </edge>
    <edge id=":juncMain_223" function="internal">
        <lane id=":juncMain_223_0" index="0" disallow="pedestrian" speed="15.00" length="17.61" shape="505.47,445.60 495.20,431.30"/>
    </edge>
    <edge id=":juncMain_224" function="internal">
        <lane id=":juncMain_224_0" index="0" disallow="pedestrian" speed="15.00" length="17.35" shape="508.23,445.60 498.40,431.30"/>
    </edge>
    <edge id=":juncMain_225" function="internal">
        <lane id=":juncMain_225_0" index="0" disallow="pedestrian" speed="15.00" length="14.38" shape="496.72,445.60 495.20,431.30"/>
    </edge>
    <edge id=":juncMain_226" function="internal">
        <lane id=":juncMain_226_0" index="0" disallow="pedestrian" speed="15.00" length="14.37" shape="499.85,445.60 498.40,431.30"/>
    </edge>
    <edge id=":juncMain_227" function="internal">
        <lane id=":juncMain_227_0" index="0" disallow="pedestrian" speed="15.00" length="14.39" shape="496.77,445.60 495.20,431.30"/>
    </edge>
    <edge id=":juncMain_228" function="internal">
        <lane id=":juncMain_228_0" index="0" disallow="pedestrian" speed="15.00" length="14.38" shape="499.90,445.60 498.40,431.30"/>
    </edge>
    <edge id=":juncMain_229" function="internal">
        <lane id=":juncMain_229_0" index="0" disallow="pedestrian" speed="15.00" length="14.39" shape="496.82,445.60 495.20,431.30"/>
    </edge>
    <edge id=":juncMain_230" function="internal">
        <lane id=":juncMain_230_0" index="0" disallow="pedestrian" speed="15.00" length="14.38" shape="499.95,445.60 498.40,431.30"/>
    </edge>
    <edge id=":juncMain_231" function="internal">
        <lane id=":juncMain_231_0" index="0" disallow="pedestrian" speed="15.00" length="14.40" shape="496.88,445.60 495.20,431.30"/>
    </edge>
    <edge id=":juncMain_232" function="internal">
        <lane id=":juncMain_232_0" index="0" disallow="pedestrian" speed="15.00" length="14.39" shape="500.00,445.60 498.40,431.30"/>
    </edge>
    <edge id=":juncMain_233" function="internal">
        <lane id=":juncMain_233_0" index="0" disallow="pedestrian" speed="15.00" length="14.41" shape="496.94,445.60 495.20,431.30"/>
    </edge>
    <edge id=":juncMain_234" function="internal">
        <lane id=":juncMain_234_0" index="0" disallow="pedestrian" speed="15.00" length="14.40" shape="500.06,445.60 498.40,431.30"/>
    </edge>
    <edge id=":juncMain_235" function="internal">
        <lane id=":juncMain_235_0" index="0" disallow="pedestrian" speed="15.00" length="14.41" shape="497.01,445.60 495.20,431.30"/>
    </edge>
    <edge id=":juncMain_236" function="internal">
        <lane id=":juncMain_236_0" index="0" disallow="pedestrian" speed="15.00" length="14.40" shape="500.13,445.60 498.40,431.30"/>
    </edge>
    <edge id=":juncMain_237" function="internal">
        <lane id=":juncMain_237_0" index="0" disallow="pedestrian" speed="15.00" length="14.42" shape="497.08,445.60 495.20,431.30"/>
    </edge>
    <edge id=":juncMain_238" function="internal">
        <lane id=":juncMain_238_0" index="0" disallow="pedestrian" speed="15.00" length="14.41" shape="500.20,445.60 498.40,431.30"/>
    </edge>
    <edge id=":juncMain_239" function="internal">
        <lane id=":juncMain_239_0" index="0" disallow="pedestrian" speed="15.00" length="14.43" shape="497.16,445.60 495.20,431.30"/>
    </edge>
    <edge id=":juncMain_240" function="internal">
        <lane id=":juncMain_240_0" index="0" disallow="pedestrian" speed="15.00" length="14.42" shape="500.27,445.60 498.40,431.30"/>
    </edge>
    <edge id=":juncMain_241" function="internal">
        <lane id=":juncMain_241_0" index="0" disallow="pedestrian" speed="15.00" length="14.45" shape="497.24,445.60 495.20,431.30"/>
    </edge>
    <edge id=":juncMain_242" function="internal">
        <lane id=":juncMain_242_0" index="0" disallow="pedestrian" speed="15.00" length="14.43" shape="500.35,445.60 498.40,431.30"/>
    </edge>
    <edge id=":juncMain_243" function="internal">