<additional>
   <tlLogic id="juncMain" type="static" programID="1" offset="0">
       <phase duration="60.000000" state="ggGGGgggrrrrrrrrggGGGgggrrrrrrrrrGrG"/>
       <phase duration="5.000000" state="yyyyyyyyrrrrrrrryyyyyyyyrrrrrrrrrGrG"/>
       <phase duration="60.000000" state="rrrrrrrrggGGGgggrrrrrrrrggGGGgggGrGr"/>
       <phase duration="5.000000" state="rrrrrrrryyyyyyyyrrrrrrrryyyyyyyyGrGr"/>
   </tlLogic>
</additional>
