<routes>
   <personFlow id="pRegN" begin="0" end="3000" personsPerHour="360">
        <walk edges="edgeN_O edgeS_I" speed="1.000000"/>
    </personFlow>
   <personFlow id="pRegS" begin="0" end="3000" personsPerHour="360">
        <walk edges="edgeS_O edgeN_I" speed="1.000000"/>
    </personFlow>
   <personFlow id="pRegW" begin="0" end="3000" personsPerHour="360">
        <walk edges="edgeW_O edgeE_I" speed="1.000000"/>
    </personFlow>
   <personFlow id="pRegE" begin="0" end="3000" personsPerHour="360">
        <walk edges="edgeE_O edgeW_I" speed="1.000000"/>
    </personFlow>
   <personFlow id="pOppN" begin="0" end="3000" personsPerHour="360" departPos="500.000000">
        <walk edges="edgeN_I edgeS_O" speed="1.000000"/>
    </personFlow>
   <personFlow id="pOppS" begin="0" end="3000" personsPerHour="360" departPos="500.000000">
        <walk edges="edgeS_I edgeN_O" speed="1.000000"/>
    </personFlow>
   <personFlow id="pOppW" begin="0" end="3000" personsPerHour="360" departPos="500.000000">
        <walk edges="edgeW_I edgeE_O" speed="1.000000"/>
    </personFlow>
   <personFlow id="pOppE" begin="0" end="3000" personsPerHour="360" departPos="500.000000">
        <walk edges="edgeE_I edgeW_O" speed="1.000000"/>
    </personFlow>

    <route id="edgeN_edgeN" edges="edgeN_O edgeN_I" />
    <route id="edgeN_edgeS" edges="edgeN_O edgeS_I" />
    <route id="edgeN_edgeW" edges="edgeN_O edgeW_I" />
    <route id="edgeN_edgeE" edges="edgeN_O edgeE_I" />
    <route id="edgeS_edgeN" edges="edgeS_O edgeN_I" />
    <route id="edgeS_edgeS" edges="edgeS_O edgeS_I" />
    <route id="edgeS_edgeW" edges="edgeS_O edgeW_I" />
    <route id="edgeS_edgeE" edges="edgeS_O edgeE_I" />
    <route id="edgeW_edgeN" edges="edgeW_O edgeN_I" />
    <route id="edgeW_edgeS" edges="edgeW_O edgeS_I" />
    <route id="edgeW_edgeW" edges="edgeW_O edgeW_I" />
    <route id="edgeW_edgeE" edges="edgeW_O edgeE_I" />
    <route id="edgeE_edgeN" edges="edgeE_O edgeN_I" />
    <route id="edgeE_edgeS" edges="edgeE_O edgeS_I" />
    <route id="edgeE_edgeW" edges="edgeE_O edgeW_I" />
    <route id="edgeE_edgeE" edges="edgeE_O edgeE_I" />
    
   <vType id="vehicleS_0" length="5.000000" accel="0.800000" decel="4.500000" sigma="0.5" minGap="2.500000" maxSpeed="25.000000" guiShape="passenger" />
   <vehicle id="straightS_0" type="vehicleS_0" route="edgeS_edgeN" depart="0" departLane="3" />

   <vType id="vehicleW_1" length="5.000000" accel="0.800000" decel="4.500000" sigma="0.5" minGap="2.500000" maxSpeed="25.000000" guiShape="passenger" />
   <vehicle id="straightW_1" type="vehicleW_1" route="edgeW_edgeE" depart="0" departLane="1" />

   <vType id="vehicleE_2" length="5.000000" accel="0.800000" decel="4.500000" sigma="0.5" minGap="2.500000" maxSpeed="25.000000" guiShape="passenger" />
   <vehicle id="straightE_2" type="vehicleE_2" route="edgeE_edgeW" depart="2" departLane="1" />

   <vType id="vehicleN_3" length="5.000000" accel="0.800000" decel="4.500000" sigma="0.5" minGap="2.500000" maxSpeed="25.000000" guiShape="passenger" />
   <vehicle id="leftN_3" type="vehicleN_3" route="edgeN_edgeE" depart="3" departLane="17" />

   <vType id="vehicleW_4" length="5.000000" accel="0.800000" decel="4.500000" sigma="0.5" minGap="2.500000" maxSpeed="25.000000" guiShape="passenger" />
   <vehicle id="leftW_4" type="vehicleW_4" route="edgeW_edgeN" depart="5" departLane="6" />

   <vType id="vehicleW_5" length="5.000000" accel="0.800000" decel="4.500000" sigma="0.5" minGap="2.500000" maxSpeed="25.000000" guiShape="passenger" />
   <vehicle id="straightW_5" type="vehicleW_5" route="edgeW_edgeE" depart="6" departLane="1" />

   <vType id="vehicleN_6" length="5.000000" accel="0.800000" decel="4.500000" sigma="0.5" minGap="2.500000" maxSpeed="25.000000" guiShape="passenger" />
   <vehicle id="rightN_6" type="vehicleN_6" route="edgeN_edgeW" depart="7" departLane="1" />

   <vType id="vehicleS_7" length="5.000000" accel="0.800000" decel="4.500000" sigma="0.5" minGap="2.500000" maxSpeed="25.000000" guiShape="passenger" />
   <vehicle id="straightS_7" type="vehicleS_7" route="edgeS_edgeN" depart="8" departLane="3" />

   <vType id="vehicleS_8" length="5.000000" accel="0.800000" decel="4.500000" sigma="0.5" minGap="2.500000" maxSpeed="25.000000" guiShape="passenger" />
   <vehicle id="leftS_8" type="vehicleS_8" route="edgeS_edgeW" depart="12" departLane="16" />

   <vType id="vehicleW_9" length="5.000000" accel="0.800000" decel="4.500000" sigma="0.5" minGap="2.500000" maxSpeed="25.000000" guiShape="passenger" />
   <vehicle id="uturnW_9" type="vehicleW_9" route="edgeW_edgeW" depart="14" departLane="20" />

   <vType id="vehicleN_10" length="5.000000" accel="0.800000" decel="4.500000" sigma="0.5" minGap="2.500000" maxSpeed="25.000000" guiShape="passenger" />
   <vehicle id="leftN_10" type="vehicleN_10" route="edgeN_edgeE" depart="15" departLane="8" />

   <vType id="vehicleW_11" length="5.000000" accel="0.800000" decel="4.500000" sigma="0.5" minGap="2.500000" maxSpeed="25.000000" guiShape="passenger" />
   <vehicle id="rightW_11" type="vehicleW_11" route="edgeW_edgeS" depart="15" departLane="1" />

   <vType id="vehicleE_12" length="5.000000" accel="0.800000" decel="4.500000" sigma="0.5" minGap="2.500000" maxSpeed="25.000000" guiShape="passenger" />
   <vehicle id="straightE_12" type="vehicleE_12" route="edgeE_edgeW" depart="16" departLane="2" />

   <vType id="vehicleE_13" length="5.000000" accel="0.800000" decel="4.500000" sigma="0.5" minGap="2.500000" maxSpeed="25.000000" guiShape="passenger" />
   <vehicle id="rightE_13" type="vehicleE_13" route="edgeE_edgeN" depart="17" departLane="1" />

   <vType id="vehicleN_14" length="5.000000" accel="0.800000" decel="4.500000" sigma="0.5" minGap="2.500000" maxSpeed="25.000000" guiShape="passenger" />
   <vehicle id="straightN_14" type="vehicleN_14" route="edgeN_edgeS" depart="18" departLane="2" />

   <vType id="vehicleN_15" length="5.000000" accel="0.800000" decel="4.500000" sigma="0.5" minGap="2.500000" maxSpeed="25.000000" guiShape="passenger" />
   <vehicle id="leftN_15" type="vehicleN_15" route="edgeN_edgeE" depart="21" departLane="4" />

   <vType id="vehicleN_16" length="5.000000" accel="0.800000" decel="4.500000" sigma="0.5" minGap="2.500000" maxSpeed="25.000000" guiShape="passenger" />
   <vehicle id="leftN_16" type="vehicleN_16" route="edgeN_edgeE" depart="22" departLane="18" />

   <vType id="vehicleN_17" length="5.000000" accel="0.800000" decel="4.500000" sigma="0.5" minGap="2.500000" maxSpeed="25.000000" guiShape="passenger" />
   <vehicle id="rightN_17" type="vehicleN_17" route="edgeN_edgeW" depart="23" departLane="1" />

   <vType id="vehicleE_18" length="5.000000" accel="0.800000" decel="4.500000" sigma="0.5" minGap="2.500000" maxSpeed="25.000000" guiShape="passenger" />
   <vehicle id="straightE_18" type="vehicleE_18" route="edgeE_edgeW" depart="23" departLane="1" />

   <vType id="vehicleS_19" length="5.000000" accel="0.800000" decel="4.500000" sigma="0.5" minGap="2.500000" maxSpeed="25.000000" guiShape="passenger" />
   <vehicle id="leftS_19" type="vehicleS_19" route="edgeS_edgeW" depart="24" departLane="20" />

   <vType id="vehicleW_20" length="5.000000" accel="0.800000" decel="4.500000" sigma="0.5" minGap="2.500000" maxSpeed="25.000000" guiShape="passenger" />
   <vehicle id="rightW_20" type="vehicleW_20" route="edgeW_edgeS" depart="24" departLane="1" />

   <vType id="vehicleE_21" length="5.000000" accel="0.800000" decel="4.500000" sigma="0.5" minGap="2.500000" maxSpeed="25.000000" guiShape="passenger" />
   <vehicle id="straightE_21" type="vehicleE_21" route="edgeE_edgeW" depart="24" departLane="2" />

   <vType id="vehicleN_22" length="5.000000" accel="0.800000" decel="4.500000" sigma="0.5" minGap="2.500000" maxSpeed="25.000000" guiShape="passenger" />
   <vehicle id="straightN_22" type="vehicleN_22" route="edgeN_edgeS" depart="25" departLane="3" />

   <vType id="vehicleS_23" length="5.000000" accel="0.800000" decel="4.500000" sigma="0.5" minGap="2.500000" maxSpeed="25.000000" guiShape="passenger" />
   <vehicle id="straightS_23" type="vehicleS_23" route="edgeS_edgeN" depart="26" departLane="3" />

   <vType id="vehicleE_24" length="5.000000" accel="0.800000" decel="4.500000" sigma="0.5" minGap="2.500000" maxSpeed="25.000000" guiShape="passenger" />
   <vehicle id="straightE_24" type="vehicleE_24" route="edgeE_edgeW" depart="26" departLane="3" />

   <vType id="vehicleN_25" length="5.000000" accel="0.800000" decel="4.500000" sigma="0.5" minGap="2.500000" maxSpeed="25.000000" guiShape="passenger" />
   <vehicle id="leftN_25" type="vehicleN_25" route="edgeN_edgeE" depart="27" departLane="6" />

   <vType id="vehicleN_26" length="5.000000" accel="0.800000" decel="4.500000" sigma="0.5" minGap="2.500000" maxSpeed="25.000000" guiShape="passenger" />
   <vehicle id="leftN_26" type="vehicleN_26" route="edgeN_edgeE" depart="28" departLane="11" />

   <vType id="vehicleS_27" length="5.000000" accel="0.800000" decel="4.500000" sigma="0.5" minGap="2.500000" maxSpeed="25.000000" guiShape="passenger" />
   <vehicle id="straightS_27" type="vehicleS_27" route="edgeS_edgeN" depart="30" departLane="1" />

   <vType id="vehicleE_28" length="5.000000" accel="0.800000" decel="4.500000" sigma="0.5" minGap="2.500000" maxSpeed="25.000000" guiShape="passenger" />
   <vehicle id="straightE_28" type="vehicleE_28" route="edgeE_edgeW" depart="30" departLane="2" />

   <vType id="vehicleS_29" length="5.000000" accel="0.800000" decel="4.500000" sigma="0.5" minGap="2.500000" maxSpeed="25.000000" guiShape="passenger" />
   <vehicle id="uturnS_29" type="vehicleS_29" route="edgeS_edgeS" depart="32" departLane="20" />

   <vType id="vehicleW_30" length="5.000000" accel="0.800000" decel="4.500000" sigma="0.5" minGap="2.500000" maxSpeed="25.000000" guiShape="passenger" />
   <vehicle id="leftW_30" type="vehicleW_30" route="edgeW_edgeN" depart="32" departLane="9" />

   <vType id="vehicleW_31" length="5.000000" accel="0.800000" decel="4.500000" sigma="0.5" minGap="2.500000" maxSpeed="25.000000" guiShape="passenger" />
   <vehicle id="straightW_31" type="vehicleW_31" route="edgeW_edgeE" depart="34" departLane="3" />

   <vType id="vehicleN_32" length="5.000000" accel="0.800000" decel="4.500000" sigma="0.5" minGap="2.500000" maxSpeed="25.000000" guiShape="passenger" />
   <vehicle id="straightN_32" type="vehicleN_32" route="edgeN_edgeS" depart="35" departLane="3" />

   <vType id="vehicleS_33" length="5.000000" accel="0.800000" decel="4.500000" sigma="0.5" minGap="2.500000" maxSpeed="25.000000" guiShape="passenger" />
   <vehicle id="leftS_33" type="vehicleS_33" route="edgeS_edgeW" depart="36" departLane="4" />

   <vType id="vehicleS_34" length="5.000000" accel="0.800000" decel="4.500000" sigma="0.5" minGap="2.500000" maxSpeed="25.000000" guiShape="passenger" />
   <vehicle id="uturnS_34" type="vehicleS_34" route="edgeS_edgeS" depart="37" departLane="20" />

   <vType id="vehicleW_35" length="5.000000" accel="0.800000" decel="4.500000" sigma="0.5" minGap="2.500000" maxSpeed="25.000000" guiShape="passenger" />
   <vehicle id="uturnW_35" type="vehicleW_35" route="edgeW_edgeW" depart="37" departLane="20" />

   <vType id="vehicleN_36" length="5.000000" accel="0.800000" decel="4.500000" sigma="0.5" minGap="2.500000" maxSpeed="25.000000" guiShape="passenger" />
   <vehicle id="rightN_36" type="vehicleN_36" route="edgeN_edgeW" depart="38" departLane="1" />

   <vType id="vehicleE_37" length="5.000000" accel="0.800000" decel="4.500000" sigma="0.5" minGap="2.500000" maxSpeed="25.000000" guiShape="passenger" />
   <vehicle id="uturnE_37" type="vehicleE_37" route="edgeE_edgeE" depart="38" departLane="20" />

   <vType id="vehicleN_38" length="5.000000" accel="0.800000" decel="4.500000" sigma="0.5" minGap="2.500000" maxSpeed="25.000000" guiShape="passenger" />
   <vehicle id="leftN_38" type="vehicleN_38" route="edgeN_edgeE" depart="40" departLane="11" />

   <vType id="vehicleW_39" length="5.000000" accel="0.800000" decel="4.500000" sigma="0.5" minGap="2.500000" maxSpeed="25.000000" guiShape="passenger" />
   <vehicle id="uturnW_39" type="vehicleW_39" route="edgeW_edgeW" depart="41" departLane="20" />

   <vType id="vehicleE_40" length="5.000000" accel="0.800000" decel="4.500000" sigma="0.5" minGap="2.500000" maxSpeed="25.000000" guiShape="passenger" />
   <vehicle id="rightE_40" type="vehicleE_40" route="edgeE_edgeN" depart="41" departLane="1" />

   <vType id="vehicleN_41" length="5.000000" accel="0.800000" decel="4.500000" sigma="0.5" minGap="2.500000" maxSpeed="25.000000" guiShape="passenger" />
   <vehicle id="uturnN_41" type="vehicleN_41" route="edgeN_edgeN" depart="43" departLane="20" />

   <vType id="vehicleE_42" length="5.000000" accel="0.800000" decel="4.500000" sigma="0.5" minGap="2.500000" maxSpeed="25.000000" guiShape="passenger" />
   <vehicle id="rightE_42" type="vehicleE_42" route="edgeE_edgeN" depart="43" departLane="1" />

   <vType id="vehicleS_43" length="5.000000" accel="0.800000" decel="4.500000" sigma="0.5" minGap="2.500000" maxSpeed="25.000000" guiShape="passenger" />
   <vehicle id="rightS_43" type="vehicleS_43" route="edgeS_edgeE" depart="45" departLane="1" />

   <vType id="vehicleE_44" length="5.000000" accel="0.800000" decel="4.500000" sigma="0.5" minGap="2.500000" maxSpeed="25.000000" guiShape="passenger" />
   <vehicle id="uturnE_44" type="vehicleE_44" route="edgeE_edgeE" depart="49" departLane="20" />

   <vType id="vehicleN_45" length="5.000000" accel="0.800000" decel="4.500000" sigma="0.5" minGap="2.500000" maxSpeed="25.000000" guiShape="passenger" />
   <vehicle id="leftN_45" type="vehicleN_45" route="edgeN_edgeE" depart="50" departLane="17" />

   <vType id="vehicleE_46" length="5.000000" accel="0.800000" decel="4.500000" sigma="0.5" minGap="2.500000" maxSpeed="25.000000" guiShape="passenger" />
   <vehicle id="rightE_46" type="vehicleE_46" route="edgeE_edgeN" depart="50" departLane="1" />

   <vType id="vehicleW_47" length="5.000000" accel="0.800000" decel="4.500000" sigma="0.5" minGap="2.500000" maxSpeed="25.000000" guiShape="passenger" />
   <vehicle id="leftW_47" type="vehicleW_47" route="edgeW_edgeN" depart="53" departLane="13" />

   <vType id="vehicleN_48" length="5.000000" accel="0.800000" decel="4.500000" sigma="0.5" minGap="2.500000" maxSpeed="25.000000" guiShape="passenger" />
   <vehicle id="straightN_48" type="vehicleN_48" route="edgeN_edgeS" depart="58" departLane="1" />

   <vType id="vehicleS_49" length="5.000000" accel="0.800000" decel="4.500000" sigma="0.5" minGap="2.500000" maxSpeed="25.000000" guiShape="passenger" />
   <vehicle id="straightS_49" type="vehicleS_49" route="edgeS_edgeN" depart="58" departLane="2" />

   <vType id="vehicleN_50" length="5.000000" accel="0.800000" decel="4.500000" sigma="0.5" minGap="2.500000" maxSpeed="25.000000" guiShape="passenger" />
   <vehicle id="straightN_50" type="vehicleN_50" route="edgeN_edgeS" depart="61" departLane="2" />

   <vType id="vehicleE_51" length="5.000000" accel="0.800000" decel="4.500000" sigma="0.5" minGap="2.500000" maxSpeed="25.000000" guiShape="passenger" />
   <vehicle id="straightE_51" type="vehicleE_51" route="edgeE_edgeW" depart="65" departLane="2" />

   <vType id="vehicleE_52" length="5.000000" accel="0.800000" decel="4.500000" sigma="0.5" minGap="2.500000" maxSpeed="25.000000" guiShape="passenger" />
   <vehicle id="leftE_52" type="vehicleE_52" route="edgeE_edgeS" depart="67" departLane="5" />

   <vType id="vehicleN_53" length="5.000000" accel="0.800000" decel="4.500000" sigma="0.5" minGap="2.500000" maxSpeed="25.000000" guiShape="passenger" />
   <vehicle id="leftN_53" type="vehicleN_53" route="edgeN_edgeE" depart="69" departLane="9" />

   <vType id="vehicleN_54" length="5.000000" accel="0.800000" decel="4.500000" sigma="0.5" minGap="2.500000" maxSpeed="25.000000" guiShape="passenger" />
   <vehicle id="straightN_54" type="vehicleN_54" route="edgeN_edgeS" depart="71" departLane="2" />

   <vType id="vehicleE_55" length="5.000000" accel="0.800000" decel="4.500000" sigma="0.5" minGap="2.500000" maxSpeed="25.000000" guiShape="passenger" />
   <vehicle id="rightE_55" type="vehicleE_55" route="edgeE_edgeN" depart="71" departLane="1" />

   <vType id="vehicleW_56" length="5.000000" accel="0.800000" decel="4.500000" sigma="0.5" minGap="2.500000" maxSpeed="25.000000" guiShape="passenger" />
   <vehicle id="rightW_56" type="vehicleW_56" route="edgeW_edgeS" depart="72" departLane="1" />

   <vType id="vehicleS_57" length="5.000000" accel="0.800000" decel="4.500000" sigma="0.5" minGap="2.500000" maxSpeed="25.000000" guiShape="passenger" />
   <vehicle id="uturnS_57" type="vehicleS_57" route="edgeS_edgeS" depart="73" departLane="20" />

   <vType id="vehicleW_58" length="5.000000" accel="0.800000" decel="4.500000" sigma="0.5" minGap="2.500000" maxSpeed="25.000000" guiShape="passenger" />
   <vehicle id="uturnW_58" type="vehicleW_58" route="edgeW_edgeW" depart="76" departLane="20" />

   <vType id="vehicleN_59" length="5.000000" accel="0.800000" decel="4.500000" sigma="0.5" minGap="2.500000" maxSpeed="25.000000" guiShape="passenger" />
   <vehicle id="uturnN_59" type="vehicleN_59" route="edgeN_edgeN" depart="77" departLane="20" />

   <vType id="vehicleS_60" length="5.000000" accel="0.800000" decel="4.500000" sigma="0.5" minGap="2.500000" maxSpeed="25.000000" guiShape="passenger" />
   <vehicle id="uturnS_60" type="vehicleS_60" route="edgeS_edgeS" depart="78" departLane="20" />

   <vType id="vehicleE_61" length="5.000000" accel="0.800000" decel="4.500000" sigma="0.5" minGap="2.500000" maxSpeed="25.000000" guiShape="passenger" />
   <vehicle id="leftE_61" type="vehicleE_61" route="edgeE_edgeS" depart="79" departLane="18" />

   <vType id="vehicleS_62" length="5.000000" accel="0.800000" decel="4.500000" sigma="0.5" minGap="2.500000" maxSpeed="25.000000" guiShape="passenger" />
   <vehicle id="rightS_62" type="vehicleS_62" route="edgeS_edgeE" depart="83" departLane="1" />

   <vType id="vehicleN_63" length="5.000000" accel="0.800000" decel="4.500000" sigma="0.5" minGap="2.500000" maxSpeed="25.000000" guiShape="passenger" />
   <vehicle id="leftN_63" type="vehicleN_63" route="edgeN_edgeE" depart="85" departLane="18" />

   <vType id="vehicleS_64" length="5.000000" accel="0.800000" decel="4.500000" sigma="0.5" minGap="2.500000" maxSpeed="25.000000" guiShape="passenger" />
   <vehicle id="leftS_64" type="vehicleS_64" route="edgeS_edgeW" depart="85" departLane="4" />

   <vType id="vehicleN_65" length="5.000000" accel="0.800000" decel="4.500000" sigma="0.5" minGap="2.500000" maxSpeed="25.000000" guiShape="passenger" />
   <vehicle id="leftN_65" type="vehicleN_65" route="edgeN_edgeE" depart="86" departLane="7" />

   <vType id="vehicleS_66" length="5.000000" accel="0.800000" decel="4.500000" sigma="0.5" minGap="2.500000" maxSpeed="25.000000" guiShape="passenger" />
   <vehicle id="rightS_66" type="vehicleS_66" route="edgeS_edgeE" depart="86" departLane="1" />

   <vType id="vehicleW_67" length="5.000000" accel="0.800000" decel="4.500000" sigma="0.5" minGap="2.500000" maxSpeed="25.000000" guiShape="passenger" />
   <vehicle id="leftW_67" type="vehicleW_67" route="edgeW_edgeN" depart="90" departLane="18" />

   <vType id="vehicleE_68" length="5.000000" accel="0.800000" decel="4.500000" sigma="0.5" minGap="2.500000" maxSpeed="25.000000" guiShape="passenger" />
   <vehicle id="leftE_68" type="vehicleE_68" route="edgeE_edgeS" depart="94" departLane="12" />

   <vType id="vehicleE_69" length="5.000000" accel="0.800000" decel="4.500000" sigma="0.5" minGap="2.500000" maxSpeed="25.000000" guiShape="passenger" />
   <vehicle id="leftE_69" type="vehicleE_69" route="edgeE_edgeS" depart="97" departLane="3" />

   <vType id="vehicleE_70" length="5.000000" accel="0.800000" decel="4.500000" sigma="0.5" minGap="2.500000" maxSpeed="25.000000" guiShape="passenger" />
   <vehicle id="uturnE_70" type="vehicleE_70" route="edgeE_edgeE" depart="98" departLane="20" />

   <vType id="vehicleN_71" length="5.000000" accel="0.800000" decel="4.500000" sigma="0.5" minGap="2.500000" maxSpeed="25.000000" guiShape="passenger" />
   <vehicle id="rightN_71" type="vehicleN_71" route="edgeN_edgeW" depart="99" departLane="1" />

   <vType id="vehicleE_72" length="5.000000" accel="0.800000" decel="4.500000" sigma="0.5" minGap="2.500000" maxSpeed="25.000000" guiShape="passenger" />
   <vehicle id="leftE_72" type="vehicleE_72" route="edgeE_edgeS" depart="99" departLane="15" />

   <vType id="vehicleN_73" length="5.000000" accel="0.800000" decel="4.500000" sigma="0.5" minGap="2.500000" maxSpeed="25.000000" guiShape="passenger" />
   <vehicle id="straightN_73" type="vehicleN_73" route="edgeN_edgeS" depart="103" departLane="1" />

   <vType id="vehicleW_74" length="5.000000" accel="0.800000" decel="4.500000" sigma="0.5" minGap="2.500000" maxSpeed="25.000000" guiShape="passenger" />
   <vehicle id="straightW_74" type="vehicleW_74" route="edgeW_edgeE" depart="103" departLane="3" />

   <vType id="vehicleS_75" length="5.000000" accel="0.800000" decel="4.500000" sigma="0.5" minGap="2.500000" maxSpeed="25.000000" guiShape="passenger" />
   <vehicle id="rightS_75" type="vehicleS_75" route="edgeS_edgeE" depart="104" departLane="1" />

   <vType id="vehicleE_76" length="5.000000" accel="0.800000" decel="4.500000" sigma="0.5" minGap="2.500000" maxSpeed="25.000000" guiShape="passenger" />
   <vehicle id="uturnE_76" type="vehicleE_76" route="edgeE_edgeE" depart="104" departLane="20" />

   <vType id="vehicleS_77" length="5.000000" accel="0.800000" decel="4.500000" sigma="0.5" minGap="2.500000" maxSpeed="25.000000" guiShape="passenger" />
   <vehicle id="rightS_77" type="vehicleS_77" route="edgeS_edgeE" depart="110" departLane="1" />

   <vType id="vehicleN_78" length="5.000000" accel="0.800000" decel="4.500000" sigma="0.5" minGap="2.500000" maxSpeed="25.000000" guiShape="passenger" />
   <vehicle id="uturnN_78" type="vehicleN_78" route="edgeN_edgeN" depart="114" departLane="20" />

   <vType id="vehicleS_79" length="5.000000" accel="0.800000" decel="4.500000" sigma="0.5" minGap="2.500000" maxSpeed="25.000000" guiShape="passenger" />
   <vehicle id="uturnS_79" type="vehicleS_79" route="edgeS_edgeS" depart="114" departLane="20" />

   <vType id="vehicleW_80" length="5.000000" accel="0.800000" decel="4.500000" sigma="0.5" minGap="2.500000" maxSpeed="25.000000" guiShape="passenger" />
   <vehicle id="uturnW_80" type="vehicleW_80" route="edgeW_edgeW" depart="114" departLane="20" />

   <vType id="vehicleW_81" length="5.000000" accel="0.800000" decel="4.500000" sigma="0.5" minGap="2.500000" maxSpeed="25.000000" guiShape="passenger" />
   <vehicle id="straightW_81" type="vehicleW_81" route="edgeW_edgeE" depart="115" departLane="3" />

   <vType id="vehicleW_82" length="5.000000" accel="0.800000" decel="4.500000" sigma="0.5" minGap="2.500000" maxSpeed="25.000000" guiShape="passenger" />
   <vehicle id="leftW_82" type="vehicleW_82" route="edgeW_edgeN" depart="116" departLane="5" />

   <vType id="vehicleN_83" length="5.000000" accel="0.800000" decel="4.500000" sigma="0.5" minGap="2.500000" maxSpeed="25.000000" guiShape="passenger" />
   <vehicle id="rightN_83" type="vehicleN_83" route="edgeN_edgeW" depart="117" departLane="1" />

   <vType id="vehicleS_84" length="5.000000" accel="0.800000" decel="4.500000" sigma="0.5" minGap="2.500000" maxSpeed="25.000000" guiShape="passenger" />
   <vehicle id="uturnS_84" type="vehicleS_84" route="edgeS_edgeS" depart="117" departLane="20" />

   <vType id="vehicleS_85" length="5.000000" accel="0.800000" decel="4.500000" sigma="0.5" minGap="2.500000" maxSpeed="25.000000" guiShape="passenger" />
   <vehicle id="leftS_85" type="vehicleS_85" route="edgeS_edgeW" depart="118" departLane="7" />

   <vType id="vehicleW_86" length="5.000000" accel="0.800000" decel="4.500000" sigma="0.5" minGap="2.500000" maxSpeed="25.000000" guiShape="passenger" />
   <vehicle id="uturnW_86" type="vehicleW_86" route="edgeW_edgeW" depart="120" departLane="20" />

   <vType id="vehicleN_87" length="5.000000" accel="0.800000" decel="4.500000" sigma="0.5" minGap="2.500000" maxSpeed="25.000000" guiShape="passenger" />
   <vehicle id="straightN_87" type="vehicleN_87" route="edgeN_edgeS" depart="122" departLane="1" />

   <vType id="vehicleE_88" length="5.000000" accel="0.800000" decel="4.500000" sigma="0.5" minGap="2.500000" maxSpeed="25.000000" guiShape="passenger" />
   <vehicle id="rightE_88" type="vehicleE_88" route="edgeE_edgeN" depart="123" departLane="1" />

   <vType id="vehicleE_89" length="5.000000" accel="0.800000" decel="4.500000" sigma="0.5" minGap="2.500000" maxSpeed="25.000000" guiShape="passenger" />
   <vehicle id="straightE_89" type="vehicleE_89" route="edgeE_edgeW" depart="127" departLane="3" />

   <vType id="vehicleN_90" length="5.000000" accel="0.800000" decel="4.500000" sigma="0.5" minGap="2.500000" maxSpeed="25.000000" guiShape="passenger" />
   <vehicle id="uturnN_90" type="vehicleN_90" route="edgeN_edgeN" depart="129" departLane="20" />

   <vType id="vehicleN_91" length="5.000000" accel="0.800000" decel="4.500000" sigma="0.5" minGap="2.500000" maxSpeed="25.000000" guiShape="passenger" />
   <vehicle id="uturnN_91" type="vehicleN_91" route="edgeN_edgeN" depart="130" departLane="20" />

   <vType id="vehicleN_92" length="5.000000" accel="0.800000" decel="4.500000" sigma="0.5" minGap="2.500000" maxSpeed="25.000000" guiShape="passenger" />
   <vehicle id="straightN_92" type="vehicleN_92" route="edgeN_edgeS" depart="131" departLane="3" />

   <vType id="vehicleS_93" length="5.000000" accel="0.800000" decel="4.500000" sigma="0.5" minGap="2.500000" maxSpeed="25.000000" guiShape="passenger" />
   <vehicle id="leftS_93" type="vehicleS_93" route="edgeS_edgeW" depart="132" departLane="10" />

   <vType id="vehicleE_94" length="5.000000" accel="0.800000" decel="4.500000" sigma="0.5" minGap="2.500000" maxSpeed="25.000000" guiShape="passenger" />
   <vehicle id="leftE_94" type="vehicleE_94" route="edgeE_edgeS" depart="133" departLane="10" />

   <vType id="vehicleS_95" length="5.000000" accel="0.800000" decel="4.500000" sigma="0.5" minGap="2.500000" maxSpeed="25.000000" guiShape="passenger" />
   <vehicle id="straightS_95" type="vehicleS_95" route="edgeS_edgeN" depart="134" departLane="2" />

   <vType id="vehicleE_96" length="5.000000" accel="0.800000" decel="4.500000" sigma="0.5" minGap="2.500000" maxSpeed="25.000000" guiShape="passenger" />
   <vehicle id="straightE_96" type="vehicleE_96" route="edgeE_edgeW" depart="138" departLane="1" />

   <vType id="vehicleE_97" length="5.000000" accel="0.800000" decel="4.500000" sigma="0.5" minGap="2.500000" maxSpeed="25.000000" guiShape="passenger" />
   <vehicle id="uturnE_97" type="vehicleE_97" route="edgeE_edgeE" depart="139" departLane="20" />

   <vType id="vehicleN_98" length="5.000000" accel="0.800000" decel="4.500000" sigma="0.5" minGap="2.500000" maxSpeed="25.000000" guiShape="passenger" />
   <vehicle id="uturnN_98" type="vehicleN_98" route="edgeN_edgeN" depart="140" departLane="20" />

   <vType id="vehicleW_99" length="5.000000" accel="0.800000" decel="4.500000" sigma="0.5" minGap="2.500000" maxSpeed="25.000000" guiShape="passenger" />
   <vehicle id="uturnW_99" type="vehicleW_99" route="edgeW_edgeW" depart="140" departLane="20" />

   <vType id="vehicleE_100" length="5.000000" accel="0.800000" decel="4.500000" sigma="0.5" minGap="2.500000" maxSpeed="25.000000" guiShape="passenger" />
   <vehicle id="straightE_100" type="vehicleE_100" route="edgeE_edgeW" depart="140" departLane="1" />

   <vType id="vehicleE_101" length="5.000000" accel="0.800000" decel="4.500000" sigma="0.5" minGap="2.500000" maxSpeed="25.000000" guiShape="passenger" />
   <vehicle id="straightE_101" type="vehicleE_101" route="edgeE_edgeW" depart="141" departLane="1" />

   <vType id="vehicleE_102" length="5.000000" accel="0.800000" decel="4.500000" sigma="0.5" minGap="2.500000" maxSpeed="25.000000" guiShape="passenger" />
   <vehicle id="rightE_102" type="vehicleE_102" route="edgeE_edgeN" depart="142" departLane="1" />

   <vType id="vehicleW_103" length="5.000000" accel="0.800000" decel="4.500000" sigma="0.5" minGap="2.500000" maxSpeed="25.000000" guiShape="passenger" />
   <vehicle id="straightW_103" type="vehicleW_103" route="edgeW_edgeE" depart="143" departLane="2" />

   <vType id="vehicleE_104" length="5.000000" accel="0.800000" decel="4.500000" sigma="0.5" minGap="2.500000" maxSpeed="25.000000" guiShape="passenger" />
   <vehicle id="leftE_104" type="vehicleE_104" route="edgeE_edgeS" depart="143" departLane="20" />

   <vType id="vehicleE_105" length="5.000000" accel="0.800000" decel="4.500000" sigma="0.5" minGap="2.500000" maxSpeed="25.000000" guiShape="passenger" />
   <vehicle id="rightE_105" type="vehicleE_105" route="edgeE_edgeN" depart="145" departLane="1" />

   <vType id="vehicleS_106" length="5.000000" accel="0.800000" decel="4.500000" sigma="0.5" minGap="2.500000" maxSpeed="25.000000" guiShape="passenger" />
   <vehicle id="straightS_106" type="vehicleS_106" route="edgeS_edgeN" depart="147" departLane="2" />

   <vType id="vehicleW_107" length="5.000000" accel="0.800000" decel="4.500000" sigma="0.5" minGap="2.500000" maxSpeed="25.000000" guiShape="passenger" />
   <vehicle id="uturnW_107" type="vehicleW_107" route="edgeW_edgeW" depart="147" departLane="20" />

   <vType id="vehicleN_108" length="5.000000" accel="0.800000" decel="4.500000" sigma="0.5" minGap="2.500000" maxSpeed="25.000000" guiShape="passenger" />
   <vehicle id="straightN_108" type="vehicleN_108" route="edgeN_edgeS" depart="149" departLane="3" />

   <vType id="vehicleS_109" length="5.000000" accel="0.800000" decel="4.500000" sigma="0.5" minGap="2.500000" maxSpeed="25.000000" guiShape="passenger" />
   <vehicle id="straightS_109" type="vehicleS_109" route="edgeS_edgeN" depart="149" departLane="1" />
