<routes>
   <personFlow id="pRegN" begin="0" end="3000" personsPerHour="430.089123">
        <walk edges="edgeN_O edgeS_I" speed="1.742487"/>
    </personFlow>
   <personFlow id="pRegS" begin="0" end="3000" personsPerHour="434.595891">
        <walk edges="edgeS_O edgeN_I" speed="1.377379"/>
    </personFlow>
   <personFlow id="pRegW" begin="0" end="3000" personsPerHour="864.122811">
        <walk edges="edgeW_O edgeE_I" speed="1.593941"/>
    </personFlow>
   <personFlow id="pRegE" begin="0" end="3000" personsPerHour="285.312776">
        <walk edges="edgeE_O edgeW_I" speed="0.913492"/>
    </personFlow>
   <personFlow id="pOppN" begin="0" end="3000" personsPerHour="170.167856" departPos="700.000000">
        <walk edges="edgeN_I edgeS_O" speed="1.625266"/>
    </personFlow>
   <personFlow id="pOppS" begin="0" end="3000" personsPerHour="88.138960" departPos="700.000000">
        <walk edges="edgeS_I edgeN_O" speed="1.899159"/>
    </personFlow>
   <personFlow id="pOppW" begin="0" end="3000" personsPerHour="197.422717" departPos="600.000000">
        <walk edges="edgeW_I edgeE_O" speed="2.131810"/>
    </personFlow>
   <personFlow id="pOppE" begin="0" end="3000" personsPerHour="721.419875" departPos="500.000000">
        <walk edges="edgeE_I edgeW_O" speed="2.055082"/>
    </personFlow>

    <route id="edgeN_edgeN" edges="edgeN_O edgeN_I" />
    <route id="edgeN_edgeS" edges="edgeN_O edgeS_I" />
    <route id="edgeN_edgeW" edges="edgeN_O edgeW_I" />
    <route id="edgeN_edgeE" edges="edgeN_O edgeE_I" />
    <route id="edgeS_edgeN" edges="edgeS_O edgeN_I" />
    <route id="edgeS_edgeS" edges="edgeS_O edgeS_I" />
    <route id="edgeS_edgeW" edges="edgeS_O edgeW_I" />
    <route id="edgeS_edgeE" edges="edgeS_O edgeE_I" />
    <route id="edgeW_edgeN" edges="edgeW_O edgeN_I" />
    <route id="edgeW_edgeS" edges="edgeW_O edgeS_I" />
    <route id="edgeW_edgeW" edges="edgeW_O edgeW_I" />
    <route id="edgeW_edgeE" edges="edgeW_O edgeE_I" />
    <route id="edgeE_edgeN" edges="edgeE_O edgeN_I" />
    <route id="edgeE_edgeS" edges="edgeE_O edgeS_I" />
    <route id="edgeE_edgeW" edges="edgeE_O edgeW_I" />
    <route id="edgeE_edgeE" edges="edgeE_O edgeE_I" />
    
   <vType id="vehicleS_0" length="4.280000" accel="3.383000" decel="4.853000" sigma="0.5" minGap="2.684113" maxSpeed="143.158643" guiShape="passenger" />
   <vehicle id="straightS_0" type="vehicleS_0" route="edgeS_edgeN" depart="0" departLane="4" />

   <vType id="vehicleW_1" length="3.974000" accel="2.461000" decel="4.484000" sigma="0.5" minGap="2.684113" maxSpeed="143.158643" guiShape="passenger" />
   <vehicle id="straightW_1" type="vehicleW_1" route="edgeW_edgeE" depart="0" departLane="1" />

   <vType id="vehicleN_2" length="5.128000" accel="2.356000" decel="4.307000" sigma="0.5" minGap="2.684113" maxSpeed="143.158643" guiShape="passenger" />
   <vehicle id="straightN_2" type="vehicleN_2" route="edgeN_edgeS" depart="2" departLane="3" />

   <vType id="vehicleS_3" length="4.459000" accel="2.237000" decel="3.606000" sigma="0.5" minGap="2.684113" maxSpeed="143.158643" guiShape="passenger" />
   <vehicle id="straightS_3" type="vehicleS_3" route="edgeS_edgeN" depart="2" departLane="3" />

   <vType id="vehicleW_4" length="4.385000" accel="2.214000" decel="3.898000" sigma="0.5" minGap="2.684113" maxSpeed="143.158643" guiShape="passenger" />
   <vehicle id="straightW_4" type="vehicleW_4" route="edgeW_edgeE" depart="5" departLane="1" />

   <vType id="vehicleW_5" length="4.987000" accel="3.322000" decel="4.867000" sigma="0.5" minGap="2.684113" maxSpeed="143.158643" guiShape="passenger" />
   <vehicle id="straightW_5" type="vehicleW_5" route="edgeW_edgeE" depart="6" departLane="1" />

   <vType id="vehicleN_6" length="4.185000" accel="2.747000" decel="5.525000" sigma="0.5" minGap="2.684113" maxSpeed="143.158643" guiShape="passenger" />
   <vehicle id="straightN_6" type="vehicleN_6" route="edgeN_edgeS" depart="7" departLane="4" />

   <vType id="vehicleW_7" length="5.143000" accel="2.171000" decel="5.165000" sigma="0.5" minGap="2.684113" maxSpeed="143.158643" guiShape="passenger" />
   <vehicle id="straightW_7" type="vehicleW_7" route="edgeW_edgeE" depart="7" departLane="3" />

   <vType id="vehicleN_8" length="4.824000" accel="3.350000" decel="3.855000" sigma="0.5" minGap="2.684113" maxSpeed="143.158643" guiShape="passenger" />
   <vehicle id="straightN_8" type="vehicleN_8" route="edgeN_edgeS" depart="8" departLane="3" />

   <vType id="vehicleS_9" length="4.653000" accel="2.543000" decel="3.928000" sigma="0.5" minGap="2.684113" maxSpeed="143.158643" guiShape="passenger" />
   <vehicle id="straightS_9" type="vehicleS_9" route="edgeS_edgeN" depart="8" departLane="4" />

   <vType id="vehicleN_10" length="5.123000" accel="3.605000" decel="3.727000" sigma="0.5" minGap="2.684113" maxSpeed="143.158643" guiShape="passenger" />
   <vehicle id="straightN_10" type="vehicleN_10" route="edgeN_edgeS" depart="10" departLane="2" />

   <vType id="vehicleE_11" length="5.503000" accel="3.014000" decel="5.486000" sigma="0.5" minGap="2.684113" maxSpeed="143.158643" guiShape="passenger" />
   <vehicle id="straightE_11" type="vehicleE_11" route="edgeE_edgeW" depart="10" departLane="1" />

   <vType id="vehicleS_12" length="5.115000" accel="3.441000" decel="4.129000" sigma="0.5" minGap="2.684113" maxSpeed="143.158643" guiShape="passenger" />
   <vehicle id="straightS_12" type="vehicleS_12" route="edgeS_edgeN" depart="11" departLane="3" />

   <vType id="vehicleW_13" length="4.209000" accel="3.697000" decel="5.269000" sigma="0.5" minGap="2.684113" maxSpeed="143.158643" guiShape="passenger" />
   <vehicle id="straightW_13" type="vehicleW_13" route="edgeW_edgeE" depart="12" departLane="3" />

   <vType id="vehicleS_14" length="4.182000" accel="3.770000" decel="5.381000" sigma="0.5" minGap="2.684113" maxSpeed="143.158643" guiShape="passenger" />
   <vehicle id="straightS_14" type="vehicleS_14" route="edgeS_edgeN" depart="13" departLane="2" />

   <vType id="vehicleN_15" length="5.486000" accel="3.509000" decel="3.913000" sigma="0.5" minGap="2.684113" maxSpeed="143.158643" guiShape="passenger" />
   <vehicle id="straightN_15" type="vehicleN_15" route="edgeN_edgeS" depart="14" departLane="2" />

   <vType id="vehicleE_16" length="4.036000" accel="3.426000" decel="5.044000" sigma="0.5" minGap="2.684113" maxSpeed="143.158643" guiShape="passenger" />
   <vehicle id="straightE_16" type="vehicleE_16" route="edgeE_edgeW" depart="14" departLane="2" />

   <vType id="vehicleW_17" length="4.887000" accel="3.789000" decel="5.395000" sigma="0.5" minGap="2.684113" maxSpeed="143.158643" guiShape="passenger" />
   <vehicle id="straightW_17" type="vehicleW_17" route="edgeW_edgeE" depart="15" departLane="2" />

   <vType id="vehicleN_18" length="4.518000" accel="3.674000" decel="4.369000" sigma="0.5" minGap="2.684113" maxSpeed="143.158643" guiShape="passenger" />
   <vehicle id="straightN_18" type="vehicleN_18" route="edgeN_edgeS" depart="16" departLane="2" />

   <vType id="vehicleS_19" length="4.858000" accel="2.481000" decel="3.871000" sigma="0.5" minGap="2.684113" maxSpeed="143.158643" guiShape="passenger" />
   <vehicle id="straightS_19" type="vehicleS_19" route="edgeS_edgeN" depart="16" departLane="2" />

   <vType id="vehicleE_20" length="3.976000" accel="2.660000" decel="4.503000" sigma="0.5" minGap="2.684113" maxSpeed="143.158643" guiShape="passenger" />
   <vehicle id="straightE_20" type="vehicleE_20" route="edgeE_edgeW" depart="16" departLane="3" />

   <vType id="vehicleS_21" length="5.407000" accel="3.089000" decel="4.414000" sigma="0.5" minGap="2.684113" maxSpeed="143.158643" guiShape="passenger" />
   <vehicle id="straightS_21" type="vehicleS_21" route="edgeS_edgeN" depart="17" departLane="3" />

   <vType id="vehicleE_22" length="4.609000" accel="2.826000" decel="4.402000" sigma="0.5" minGap="2.684113" maxSpeed="143.158643" guiShape="passenger" />
   <vehicle id="straightE_22" type="vehicleE_22" route="edgeE_edgeW" depart="17" departLane="1" />

   <vType id="vehicleW_23" length="4.464000" accel="3.606000" decel="3.933000" sigma="0.5" minGap="2.684113" maxSpeed="143.158643" guiShape="passenger" />
   <vehicle id="straightW_23" type="vehicleW_23" route="edgeW_edgeE" depart="18" departLane="2" />

   <vType id="vehicleN_24" length="4.659000" accel="3.629000" decel="3.560000" sigma="0.5" minGap="2.684113" maxSpeed="143.158643" guiShape="passenger" />
   <vehicle id="straightN_24" type="vehicleN_24" route="edgeN_edgeS" depart="19" departLane="4" />

   <vType id="vehicleS_25" length="4.782000" accel="2.098000" decel="3.598000" sigma="0.5" minGap="2.684113" maxSpeed="143.158643" guiShape="passenger" />
   <vehicle id="straightS_25" type="vehicleS_25" route="edgeS_edgeN" depart="19" departLane="2" />

   <vType id="vehicleW_26" length="4.265000" accel="2.786000" decel="3.524000" sigma="0.5" minGap="2.684113" maxSpeed="143.158643" guiShape="passenger" />
   <vehicle id="straightW_26" type="vehicleW_26" route="edgeW_edgeE" depart="19" departLane="4" />

   <vType id="vehicleE_27" length="5.393000" accel="3.470000" decel="4.011000" sigma="0.5" minGap="2.684113" maxSpeed="143.158643" guiShape="passenger" />
   <vehicle id="straightE_27" type="vehicleE_27" route="edgeE_edgeW" depart="19" departLane="4" />

   <vType id="vehicleN_28" length="5.460000" accel="3.103000" decel="4.564000" sigma="0.5" minGap="2.684113" maxSpeed="143.158643" guiShape="passenger" />
   <vehicle id="straightN_28" type="vehicleN_28" route="edgeN_edgeS" depart="20" departLane="4" />

   <vType id="vehicleS_29" length="4.681000" accel="3.709000" decel="4.540000" sigma="0.5" minGap="2.684113" maxSpeed="143.158643" guiShape="passenger" />
   <vehicle id="straightS_29" type="vehicleS_29" route="edgeS_edgeN" depart="20" departLane="2" />

   <vType id="vehicleE_30" length="4.868000" accel="3.274000" decel="3.904000" sigma="0.5" minGap="2.684113" maxSpeed="143.158643" guiShape="passenger" />
   <vehicle id="straightE_30" type="vehicleE_30" route="edgeE_edgeW" depart="20" departLane="1" />

   <vType id="vehicleE_31" length="4.967000" accel="3.078000" decel="4.078000" sigma="0.5" minGap="2.684113" maxSpeed="143.158643" guiShape="passenger" />
   <vehicle id="straightE_31" type="vehicleE_31" route="edgeE_edgeW" depart="21" departLane="3" />

   <vType id="vehicleN_32" length="4.305000" accel="2.777000" decel="4.842000" sigma="0.5" minGap="2.684113" maxSpeed="143.158643" guiShape="passenger" />
   <vehicle id="straightN_32" type="vehicleN_32" route="edgeN_edgeS" depart="22" departLane="3" />

   <vType id="vehicleS_33" length="5.408000" accel="2.088000" decel="4.733000" sigma="0.5" minGap="2.684113" maxSpeed="143.158643" guiShape="passenger" />
   <vehicle id="straightS_33" type="vehicleS_33" route="edgeS_edgeN" depart="22" departLane="4" />

   <vType id="vehicleE_34" length="4.346000" accel="3.734000" decel="5.292000" sigma="0.5" minGap="2.684113" maxSpeed="143.158643" guiShape="passenger" />
   <vehicle id="straightE_34" type="vehicleE_34" route="edgeE_edgeW" depart="22" departLane="2" />

   <vType id="vehicleN_35" length="5.246000" accel="3.325000" decel="4.713000" sigma="0.5" minGap="2.684113" maxSpeed="143.158643" guiShape="passenger" />
   <vehicle id="straightN_35" type="vehicleN_35" route="edgeN_edgeS" depart="23" departLane="4" />

   <vType id="vehicleS_36" length="4.345000" accel="3.656000" decel="4.994000" sigma="0.5" minGap="2.684113" maxSpeed="143.158643" guiShape="passenger" />
   <vehicle id="straightS_36" type="vehicleS_36" route="edgeS_edgeN" depart="24" departLane="2" />

   <vType id="vehicleW_37" length="5.062000" accel="2.434000" decel="4.761000" sigma="0.5" minGap="2.684113" maxSpeed="143.158643" guiShape="passenger" />
   <vehicle id="straightW_37" type="vehicleW_37" route="edgeW_edgeE" depart="24" departLane="3" />

   <vType id="vehicleN_38" length="4.007000" accel="3.201000" decel="5.181000" sigma="0.5" minGap="2.684113" maxSpeed="143.158643" guiShape="passenger" />
   <vehicle id="straightN_38" type="vehicleN_38" route="edgeN_edgeS" depart="25" departLane="2" />

   <vType id="vehicleS_39" length="4.935000" accel="2.538000" decel="4.991000" sigma="0.5" minGap="2.684113" maxSpeed="143.158643" guiShape="passenger" />
   <vehicle id="straightS_39" type="vehicleS_39" route="edgeS_edgeN" depart="25" departLane="4" />

   <vType id="vehicleN_40" length="5.020000" accel="2.337000" decel="3.475000" sigma="0.5" minGap="2.684113" maxSpeed="143.158643" guiShape="passenger" />
   <vehicle id="straightN_40" type="vehicleN_40" route="edgeN_edgeS" depart="26" departLane="3" />

   <vType id="vehicleW_41" length="4.415000" accel="3.673000" decel="5.110000" sigma="0.5" minGap="2.684113" maxSpeed="143.158643" guiShape="passenger" />
   <vehicle id="straightW_41" type="vehicleW_41" route="edgeW_edgeE" depart="26" departLane="1" />

   <vType id="vehicleN_42" length="4.089000" accel="3.461000" decel="5.299000" sigma="0.5" minGap="2.684113" maxSpeed="143.158643" guiShape="passenger" />
   <vehicle id="straightN_42" type="vehicleN_42" route="edgeN_edgeS" depart="27" departLane="3" />

   <vType id="vehicleN_43" length="5.193000" accel="2.387000" decel="4.284000" sigma="0.5" minGap="2.684113" maxSpeed="143.158643" guiShape="passenger" />
   <vehicle id="straightN_43" type="vehicleN_43" route="edgeN_edgeS" depart="28" departLane="2" />

   <vType id="vehicleE_44" length="4.098000" accel="3.625000" decel="5.244000" sigma="0.5" minGap="2.684113" maxSpeed="143.158643" guiShape="passenger" />
   <vehicle id="rightE_44" type="vehicleE_44" route="edgeE_edgeN" depart="29" departLane="1" />

   <vType id="vehicleN_45" length="4.480000" accel="3.533000" decel="5.271000" sigma="0.5" minGap="2.684113" maxSpeed="143.158643" guiShape="passenger" />
   <vehicle id="straightN_45" type="vehicleN_45" route="edgeN_edgeS" depart="30" departLane="2" />

   <vType id="vehicleS_46" length="4.446000" accel="3.611000" decel="5.477000" sigma="0.5" minGap="2.684113" maxSpeed="143.158643" guiShape="passenger" />
   <vehicle id="straightS_46" type="vehicleS_46" route="edgeS_edgeN" depart="30" departLane="3" />

   <vType id="vehicleE_47" length="4.340000" accel="3.106000" decel="5.512000" sigma="0.5" minGap="2.684113" maxSpeed="143.158643" guiShape="passenger" />
   <vehicle id="rightE_47" type="vehicleE_47" route="edgeE_edgeN" depart="31" departLane="1" />

   <vType id="vehicleN_48" length="5.080000" accel="2.630000" decel="4.701000" sigma="0.5" minGap="2.684113" maxSpeed="143.158643" guiShape="passenger" />
   <vehicle id="straightN_48" type="vehicleN_48" route="edgeN_edgeS" depart="32" departLane="4" />

   <vType id="vehicleS_49" length="4.228000" accel="2.151000" decel="4.335000" sigma="0.5" minGap="2.684113" maxSpeed="143.158643" guiShape="passenger" />
   <vehicle id="straightS_49" type="vehicleS_49" route="edgeS_edgeN" depart="32" departLane="4" />

   <vType id="vehicleN_50" length="4.449000" accel="2.631000" decel="5.221000" sigma="0.5" minGap="2.684113" maxSpeed="143.158643" guiShape="passenger" />
   <vehicle id="straightN_50" type="vehicleN_50" route="edgeN_edgeS" depart="34" departLane="4" />

   <vType id="vehicleN_51" length="4.804000" accel="2.413000" decel="4.827000" sigma="0.5" minGap="2.684113" maxSpeed="143.158643" guiShape="passenger" />
   <vehicle id="straightN_51" type="vehicleN_51" route="edgeN_edgeS" depart="35" departLane="3" />

   <vType id="vehicleN_52" length="3.927000" accel="2.583000" decel="4.322000" sigma="0.5" minGap="2.684113" maxSpeed="143.158643" guiShape="passenger" />
   <vehicle id="straightN_52" type="vehicleN_52" route="edgeN_edgeS" depart="36" departLane="4" />

   <vType id="vehicleW_53" length="4.907000" accel="2.238000" decel="5.445000" sigma="0.5" minGap="2.684113" maxSpeed="143.158643" guiShape="passenger" />
   <vehicle id="straightW_53" type="vehicleW_53" route="edgeW_edgeE" depart="38" departLane="2" />

   <vType id="vehicleN_54" length="3.965000" accel="2.508000" decel="4.419000" sigma="0.5" minGap="2.684113" maxSpeed="143.158643" guiShape="passenger" />
   <vehicle id="straightN_54" type="vehicleN_54" route="edgeN_edgeS" depart="39" departLane="2" />

   <vType id="vehicleS_55" length="4.838000" accel="3.351000" decel="4.223000" sigma="0.5" minGap="2.684113" maxSpeed="143.158643" guiShape="passenger" />
   <vehicle id="straightS_55" type="vehicleS_55" route="edgeS_edgeN" depart="39" departLane="3" />

   <vType id="vehicleW_56" length="3.936000" accel="3.409000" decel="5.053000" sigma="0.5" minGap="2.684113" maxSpeed="143.158643" guiShape="passenger" />
   <vehicle id="straightW_56" type="vehicleW_56" route="edgeW_edgeE" depart="39" departLane="1" />

   <vType id="vehicleN_57" length="5.028000" accel="2.899000" decel="4.596000" sigma="0.5" minGap="2.684113" maxSpeed="143.158643" guiShape="passenger" />
   <vehicle id="straightN_57" type="vehicleN_57" route="edgeN_edgeS" depart="40" departLane="2" />

   <vType id="vehicleS_58" length="4.983000" accel="3.831000" decel="4.678000" sigma="0.5" minGap="2.684113" maxSpeed="143.158643" guiShape="passenger" />
   <vehicle id="straightS_58" type="vehicleS_58" route="edgeS_edgeN" depart="40" departLane="3" />

   <vType id="vehicleS_59" length="4.318000" accel="3.207000" decel="5.044000" sigma="0.5" minGap="2.684113" maxSpeed="143.158643" guiShape="passenger" />
   <vehicle id="straightS_59" type="vehicleS_59" route="edgeS_edgeN" depart="42" departLane="4" />

   <vType id="vehicleE_60" length="5.056000" accel="2.489000" decel="4.120000" sigma="0.5" minGap="2.684113" maxSpeed="143.158643" guiShape="passenger" />
   <vehicle id="straightE_60" type="vehicleE_60" route="edgeE_edgeW" depart="42" departLane="1" />

   <vType id="vehicleN_61" length="5.025000" accel="3.330000" decel="3.536000" sigma="0.5" minGap="2.684113" maxSpeed="143.158643" guiShape="passenger" />
   <vehicle id="straightN_61" type="vehicleN_61" route="edgeN_edgeS" depart="43" departLane="3" />

   <vType id="vehicleS_62" length="4.025000" accel="3.555000" decel="4.235000" sigma="0.5" minGap="2.684113" maxSpeed="143.158643" guiShape="passenger" />
   <vehicle id="straightS_62" type="vehicleS_62" route="edgeS_edgeN" depart="43" departLane="4" />

   <vType id="vehicleE_63" length="4.838000" accel="2.921000" decel="5.425000" sigma="0.5" minGap="2.684113" maxSpeed="143.158643" guiShape="passenger" />
   <vehicle id="rightE_63" type="vehicleE_63" route="edgeE_edgeN" depart="43" departLane="1" />

   <vType id="vehicleE_64" length="4.617000" accel="2.123000" decel="4.121000" sigma="0.5" minGap="2.684113" maxSpeed="143.158643" guiShape="passenger" />
   <vehicle id="straightE_64" type="vehicleE_64" route="edgeE_edgeW" depart="45" departLane="4" />

   <vType id="vehicleN_65" length="5.299000" accel="2.395000" decel="3.957000" sigma="0.5" minGap="2.684113" maxSpeed="143.158643" guiShape="passenger" />
   <vehicle id="straightN_65" type="vehicleN_65" route="edgeN_edgeS" depart="48" departLane="3" />

   <vType id="vehicleS_66" length="5.131000" accel="2.747000" decel="5.015000" sigma="0.5" minGap="2.684113" maxSpeed="143.158643" guiShape="passenger" />
   <vehicle id="straightS_66" type="vehicleS_66" route="edgeS_edgeN" depart="48" departLane="3" />

   <vType id="vehicleW_67" length="3.957000" accel="3.032000" decel="5.548000" sigma="0.5" minGap="2.684113" maxSpeed="143.158643" guiShape="passenger" />
   <vehicle id="straightW_67" type="vehicleW_67" route="edgeW_edgeE" depart="48" departLane="3" />

   <vType id="vehicleE_68" length="5.442000" accel="2.143000" decel="3.465000" sigma="0.5" minGap="2.684113" maxSpeed="143.158643" guiShape="passenger" />
   <vehicle id="straightE_68" type="vehicleE_68" route="edgeE_edgeW" depart="48" departLane="2" />

   <vType id="vehicleN_69" length="4.168000" accel="2.296000" decel="4.837000" sigma="0.5" minGap="2.684113" maxSpeed="143.158643" guiShape="passenger" />
   <vehicle id="straightN_69" type="vehicleN_69" route="edgeN_edgeS" depart="49" departLane="4" />

   <vType id="vehicleE_70" length="4.886000" accel="3.788000" decel="4.942000" sigma="0.5" minGap="2.684113" maxSpeed="143.158643" guiShape="passenger" />
   <vehicle id="straightE_70" type="vehicleE_70" route="edgeE_edgeW" depart="49" departLane="2" />

   <vType id="vehicleS_71" length="4.420000" accel="3.278000" decel="5.458000" sigma="0.5" minGap="2.684113" maxSpeed="143.158643" guiShape="passenger" />
   <vehicle id="straightS_71" type="vehicleS_71" route="edgeS_edgeN" depart="50" departLane="3" />

   <vType id="vehicleE_72" length="5.241000" accel="2.504000" decel="4.897000" sigma="0.5" minGap="2.684113" maxSpeed="143.158643" guiShape="passenger" />
   <vehicle id="straightE_72" type="vehicleE_72" route="edgeE_edgeW" depart="50" departLane="3" />

   <vType id="vehicleW_73" length="5.165000" accel="2.690000" decel="4.319000" sigma="0.5" minGap="2.684113" maxSpeed="143.158643" guiShape="passenger" />
   <vehicle id="rightW_73" type="vehicleW_73" route="edgeW_edgeS" depart="51" departLane="1" />

   <vType id="vehicleE_74" length="3.947000" accel="2.820000" decel="4.452000" sigma="0.5" minGap="2.684113" maxSpeed="143.158643" guiShape="passenger" />
   <vehicle id="straightE_74" type="vehicleE_74" route="edgeE_edgeW" depart="51" departLane="4" />

   <vType id="vehicleE_75" length="4.778000" accel="2.933000" decel="4.334000" sigma="0.5" minGap="2.684113" maxSpeed="143.158643" guiShape="passenger" />
   <vehicle id="rightE_75" type="vehicleE_75" route="edgeE_edgeN" depart="53" departLane="1" />

   <vType id="vehicleN_76" length="5.406000" accel="2.568000" decel="4.367000" sigma="0.5" minGap="2.684113" maxSpeed="143.158643" guiShape="passenger" />
   <vehicle id="straightN_76" type="vehicleN_76" route="edgeN_edgeS" depart="54" departLane="3" />

   <vType id="vehicleS_77" length="4.488000" accel="2.532000" decel="3.999000" sigma="0.5" minGap="2.684113" maxSpeed="143.158643" guiShape="passenger" />
   <vehicle id="straightS_77" type="vehicleS_77" route="edgeS_edgeN" depart="55" departLane="4" />

   <vType id="vehicleE_78" length="5.427000" accel="2.224000" decel="4.946000" sigma="0.5" minGap="2.684113" maxSpeed="143.158643" guiShape="passenger" />
   <vehicle id="straightE_78" type="vehicleE_78" route="edgeE_edgeW" depart="55" departLane="4" />

   <vType id="vehicleS_79" length="5.053000" accel="2.870000" decel="3.435000" sigma="0.5" minGap="2.684113" maxSpeed="143.158643" guiShape="passenger" />
   <vehicle id="straightS_79" type="vehicleS_79" route="edgeS_edgeN" depart="56" departLane="3" />

   <vType id="vehicleW_80" length="4.411000" accel="3.107000" decel="4.415000" sigma="0.5" minGap="2.684113" maxSpeed="143.158643" guiShape="passenger" />
   <vehicle id="straightW_80" type="vehicleW_80" route="edgeW_edgeE" depart="56" departLane="3" />

   <vType id="vehicleS_81" length="4.356000" accel="2.519000" decel="3.657000" sigma="0.5" minGap="2.684113" maxSpeed="143.158643" guiShape="passenger" />
   <vehicle id="straightS_81" type="vehicleS_81" route="edgeS_edgeN" depart="57" departLane="2" />

   <vType id="vehicleW_82" length="4.364000" accel="3.122000" decel="5.032000" sigma="0.5" minGap="2.684113" maxSpeed="143.158643" guiShape="passenger" />
   <vehicle id="straightW_82" type="vehicleW_82" route="edgeW_edgeE" depart="58" departLane="3" />

   <vType id="vehicleS_83" length="4.405000" accel="3.333000" decel="3.670000" sigma="0.5" minGap="2.684113" maxSpeed="143.158643" guiShape="passenger" />
   <vehicle id="straightS_83" type="vehicleS_83" route="edgeS_edgeN" depart="59" departLane="2" />

   <vType id="vehicleS_84" length="4.704000" accel="3.626000" decel="4.632000" sigma="0.5" minGap="2.684113" maxSpeed="143.158643" guiShape="passenger" />
   <vehicle id="straightS_84" type="vehicleS_84" route="edgeS_edgeN" depart="60" departLane="3" />

   <vType id="vehicleS_85" length="4.107000" accel="2.188000" decel="4.455000" sigma="0.5" minGap="2.684113" maxSpeed="143.158643" guiShape="passenger" />
   <vehicle id="straightS_85" type="vehicleS_85" route="edgeS_edgeN" depart="61" departLane="4" />

   <vType id="vehicleE_86" length="4.818000" accel="2.613000" decel="5.535000" sigma="0.5" minGap="2.684113" maxSpeed="143.158643" guiShape="passenger" />
   <vehicle id="straightE_86" type="vehicleE_86" route="edgeE_edgeW" depart="61" departLane="1" />

   <vType id="vehicleS_87" length="4.905000" accel="3.453000" decel="4.216000" sigma="0.5" minGap="2.684113" maxSpeed="143.158643" guiShape="passenger" />
   <vehicle id="straightS_87" type="vehicleS_87" route="edgeS_edgeN" depart="62" departLane="3" />

   <vType id="vehicleW_88" length="4.605000" accel="3.084000" decel="3.527000" sigma="0.5" minGap="2.684113" maxSpeed="143.158643" guiShape="passenger" />
   <vehicle id="straightW_88" type="vehicleW_88" route="edgeW_edgeE" depart="62" departLane="1" />

   <vType id="vehicleN_89" length="4.972000" accel="2.351000" decel="3.772000" sigma="0.5" minGap="2.684113" maxSpeed="143.158643" guiShape="passenger" />
   <vehicle id="straightN_89" type="vehicleN_89" route="edgeN_edgeS" depart="63" departLane="2" />

   <vType id="vehicleS_90" length="5.018000" accel="2.909000" decel="3.468000" sigma="0.5" minGap="2.684113" maxSpeed="143.158643" guiShape="passenger" />
   <vehicle id="straightS_90" type="vehicleS_90" route="edgeS_edgeN" depart="63" departLane="3" />

   <vType id="vehicleN_91" length="4.414000" accel="3.406000" decel="4.622000" sigma="0.5" minGap="2.684113" maxSpeed="143.158643" guiShape="passenger" />
   <vehicle id="straightN_91" type="vehicleN_91" route="edgeN_edgeS" depart="67" departLane="3" />

   <vType id="vehicleS_92" length="4.408000" accel="2.789000" decel="3.983000" sigma="0.5" minGap="2.684113" maxSpeed="143.158643" guiShape="passenger" />
   <vehicle id="straightS_92" type="vehicleS_92" route="edgeS_edgeN" depart="67" departLane="4" />

   <vType id="vehicleE_93" length="4.610000" accel="2.646000" decel="3.936000" sigma="0.5" minGap="2.684113" maxSpeed="143.158643" guiShape="passenger" />
   <vehicle id="straightE_93" type="vehicleE_93" route="edgeE_edgeW" depart="67" departLane="1" />

   <vType id="vehicleN_94" length="5.289000" accel="3.117000" decel="3.443000" sigma="0.5" minGap="2.684113" maxSpeed="143.158643" guiShape="passenger" />
   <vehicle id="straightN_94" type="vehicleN_94" route="edgeN_edgeS" depart="68" departLane="4" />

   <vType id="vehicleN_95" length="4.627000" accel="2.567000" decel="5.541000" sigma="0.5" minGap="2.684113" maxSpeed="143.158643" guiShape="passenger" />
   <vehicle id="straightN_95" type="vehicleN_95" route="edgeN_edgeS" depart="69" departLane="3" />

   <vType id="vehicleE_96" length="4.454000" accel="3.265000" decel="5.242000" sigma="0.5" minGap="2.684113" maxSpeed="143.158643" guiShape="passenger" />
   <vehicle id="straightE_96" type="vehicleE_96" route="edgeE_edgeW" depart="69" departLane="3" />

   <vType id="vehicleN_97" length="4.975000" accel="2.785000" decel="5.033000" sigma="0.5" minGap="2.684113" maxSpeed="143.158643" guiShape="passenger" />
   <vehicle id="straightN_97" type="vehicleN_97" route="edgeN_edgeS" depart="70" departLane="2" />

   <vType id="vehicleS_98" length="4.438000" accel="3.800000" decel="4.267000" sigma="0.5" minGap="2.684113" maxSpeed="143.158643" guiShape="passenger" />
   <vehicle id="straightS_98" type="vehicleS_98" route="edgeS_edgeN" depart="70" departLane="4" />

   <vType id="vehicleE_99" length="4.658000" accel="2.168000" decel="4.513000" sigma="0.5" minGap="2.684113" maxSpeed="143.158643" guiShape="passenger" />
   <vehicle id="rightE_99" type="vehicleE_99" route="edgeE_edgeN" depart="70" departLane="1" />

   <vType id="vehicleW_100" length="5.395000" accel="2.852000" decel="4.899000" sigma="0.5" minGap="2.684113" maxSpeed="143.158643" guiShape="passenger" />
   <vehicle id="straightW_100" type="vehicleW_100" route="edgeW_edgeE" depart="71" departLane="1" />

   <vType id="vehicleE_101" length="5.192000" accel="3.336000" decel="4.066000" sigma="0.5" minGap="2.684113" maxSpeed="143.158643" guiShape="passenger" />
   <vehicle id="straightE_101" type="vehicleE_101" route="edgeE_edgeW" depart="71" departLane="1" />

   <vType id="vehicleS_102" length="5.372000" accel="2.893000" decel="3.650000" sigma="0.5" minGap="2.684113" maxSpeed="143.158643" guiShape="passenger" />
   <vehicle id="rightS_102" type="vehicleS_102" route="edgeS_edgeE" depart="72" departLane="1" />

   <vType id="vehicleS_103" length="5.478000" accel="2.506000" decel="4.583000" sigma="0.5" minGap="2.684113" maxSpeed="143.158643" guiShape="passenger" />
   <vehicle id="straightS_103" type="vehicleS_103" route="edgeS_edgeN" depart="73" departLane="3" />

   <vType id="vehicleW_104" length="5.108000" accel="2.315000" decel="3.548000" sigma="0.5" minGap="2.684113" maxSpeed="143.158643" guiShape="passenger" />
   <vehicle id="straightW_104" type="vehicleW_104" route="edgeW_edgeE" depart="73" departLane="4" />

   <vType id="vehicleS_105" length="5.076000" accel="3.563000" decel="4.645000" sigma="0.5" minGap="2.684113" maxSpeed="143.158643" guiShape="passenger" />
   <vehicle id="straightS_105" type="vehicleS_105" route="edgeS_edgeN" depart="74" departLane="4" />

   <vType id="vehicleE_106" length="4.473000" accel="3.055000" decel="4.566000" sigma="0.5" minGap="2.684113" maxSpeed="143.158643" guiShape="passenger" />
   <vehicle id="straightE_106" type="vehicleE_106" route="edgeE_edgeW" depart="74" departLane="4" />

   <vType id="vehicleE_107" length="5.281000" accel="2.803000" decel="4.082000" sigma="0.5" minGap="2.684113" maxSpeed="143.158643" guiShape="passenger" />
   <vehicle id="straightE_107" type="vehicleE_107" route="edgeE_edgeW" depart="75" departLane="4" />

   <vType id="vehicleE_108" length="4.861000" accel="3.621000" decel="5.277000" sigma="0.5" minGap="2.684113" maxSpeed="143.158643" guiShape="passenger" />
   <vehicle id="straightE_108" type="vehicleE_108" route="edgeE_edgeW" depart="77" departLane="4" />
