<routes>

<vType id="length_5" length="5" accel="0.800000" decel="4.500000" sigma="0.5" minGap="2.500000" maxSpeed="25.000000" guiShape="passenger">
</vType>

<route id="edgeN_edgeN" edges="edgeN_O edgeN_I" />
<route id="edgeN_edgeS" edges="edgeN_O edgeS_I" />
<route id="edgeN_edgeW" edges="edgeN_O edgeW_I" />
<route id="edgeN_edgeE" edges="edgeN_O edgeE_I" />
<route id="edgeS_edgeN" edges="edgeS_O edgeN_I" />
<route id="edgeS_edgeS" edges="edgeS_O edgeS_I" />
<route id="edgeS_edgeW" edges="edgeS_O edgeW_I" />
<route id="edgeS_edgeE" edges="edgeS_O edgeE_I" />
<route id="edgeW_edgeN" edges="edgeW_O edgeN_I" />
<route id="edgeW_edgeS" edges="edgeW_O edgeS_I" />
<route id="edgeW_edgeW" edges="edgeW_O edgeW_I" />
<route id="edgeW_edgeE" edges="edgeW_O edgeE_I" />
<route id="edgeE_edgeN" edges="edgeE_O edgeN_I" />
<route id="edgeE_edgeS" edges="edgeE_O edgeS_I" />
<route id="edgeE_edgeW" edges="edgeE_O edgeW_I" />
<route id="edgeE_edgeE" edges="edgeE_O edgeE_I" />
    <vehicle id="uturnE_0" type="length_5" route="edgeE_edgeE" depart="1" departLane="2" />
    <vehicle id="straightE_1" type="length_5" route="edgeE_edgeW" depart="2" departLane="random" />
    <vehicle id="straightE_2" type="length_5" route="edgeE_edgeW" depart="3" departLane="random" />
    <vehicle id="straightE_3" type="length_5" route="edgeE_edgeW" depart="8" departLane="random" />
    <vehicle id="rightW_4" type="length_5" route="edgeW_edgeS" depart="10" departLane="0" />
    <vehicle id="straightW_5" type="length_5" route="edgeW_edgeE" depart="11" departLane="random" />
    <vehicle id="uturnE_6" type="length_5" route="edgeE_edgeE" depart="11" departLane="2" />
    <vehicle id="rightE_7" type="length_5" route="edgeE_edgeN" depart="13" departLane="0" />
    <vehicle id="leftE_8" type="length_5" route="edgeE_edgeS" depart="18" departLane="2" />
    <vehicle id="rightE_9" type="length_5" route="edgeE_edgeN" depart="21" departLane="0" />
    <vehicle id="leftE_10" type="length_5" route="edgeE_edgeS" depart="23" departLane="2" />
    <vehicle id="rightW_11" type="length_5" route="edgeW_edgeS" depart="24" departLane="0" />
    <vehicle id="rightW_12" type="length_5" route="edgeW_edgeS" depart="25" departLane="0" />
    <vehicle id="rightE_13" type="length_5" route="edgeE_edgeN" depart="25" departLane="0" />
    <vehicle id="uturnE_14" type="length_5" route="edgeE_edgeE" depart="26" departLane="2" />
    <vehicle id="uturnW_15" type="length_5" route="edgeW_edgeW" depart="27" departLane="2" />
    <vehicle id="straightE_16" type="length_5" route="edgeE_edgeW" depart="30" departLane="random" />
    <vehicle id="leftE_17" type="length_5" route="edgeE_edgeS" depart="35" departLane="2" />
    <vehicle id="leftE_18" type="length_5" route="edgeE_edgeS" depart="36" departLane="2" />
    <vehicle id="uturnE_19" type="length_5" route="edgeE_edgeE" depart="41" departLane="2" />
    <vehicle id="uturnW_20" type="length_5" route="edgeW_edgeW" depart="42" departLane="2" />
    <vehicle id="uturnW_21" type="length_5" route="edgeW_edgeW" depart="46" departLane="2" />
    <vehicle id="leftE_22" type="length_5" route="edgeE_edgeS" depart="46" departLane="2" />
    <vehicle id="leftE_23" type="length_5" route="edgeE_edgeS" depart="48" departLane="2" />
    <vehicle id="rightE_24" type="length_5" route="edgeE_edgeN" depart="50" departLane="0" />
    <vehicle id="uturnW_25" type="length_5" route="edgeW_edgeW" depart="51" departLane="2" />
    <vehicle id="straightE_26" type="length_5" route="edgeE_edgeW" depart="51" departLane="random" />
    <vehicle id="straightW_27" type="length_5" route="edgeW_edgeE" depart="52" departLane="random" />
    <vehicle id="rightW_28" type="length_5" route="edgeW_edgeS" depart="56" departLane="0" />
    <vehicle id="uturnW_29" type="length_5" route="edgeW_edgeW" depart="58" departLane="2" />
    <vehicle id="rightE_30" type="length_5" route="edgeE_edgeN" depart="58" departLane="0" />
    <vehicle id="straightW_31" type="length_5" route="edgeW_edgeE" depart="60" departLane="random" />
    <vehicle id="rightW_32" type="length_5" route="edgeW_edgeS" depart="61" departLane="0" />
    <vehicle id="straightW_33" type="length_5" route="edgeW_edgeE" depart="64" departLane="random" />
    <vehicle id="rightW_34" type="length_5" route="edgeW_edgeS" depart="65" departLane="0" />
    <vehicle id="rightW_35" type="length_5" route="edgeW_edgeS" depart="69" departLane="0" />
    <vehicle id="rightE_36" type="length_5" route="edgeE_edgeN" depart="71" departLane="0" />
    <vehicle id="uturnW_37" type="length_5" route="edgeW_edgeW" depart="72" departLane="2" />
    <vehicle id="straightE_38" type="length_5" route="edgeE_edgeW" depart="74" departLane="random" />
    <vehicle id="straightE_39" type="length_5" route="edgeE_edgeW" depart="83" departLane="random" />
    <vehicle id="straightW_40" type="length_5" route="edgeW_edgeE" depart="84" departLane="random" />
    <vehicle id="leftE_41" type="length_5" route="edgeE_edgeS" depart="86" departLane="2" />
    <vehicle id="straightE_42" type="length_5" route="edgeE_edgeW" depart="88" departLane="random" />
    <vehicle id="leftE_43" type="length_5" route="edgeE_edgeS" depart="103" departLane="2" />
    <vehicle id="uturnW_44" type="length_5" route="edgeW_edgeW" depart="104" departLane="2" />
    <vehicle id="leftE_45" type="length_5" route="edgeE_edgeS" depart="108" departLane="2" />
    <vehicle id="straightW_46" type="length_5" route="edgeW_edgeE" depart="109" departLane="random" />
    <vehicle id="leftE_47" type="length_5" route="edgeE_edgeS" depart="109" departLane="2" />
    <vehicle id="rightE_48" type="length_5" route="edgeE_edgeN" depart="111" departLane="0" />
    <vehicle id="straightW_49" type="length_5" route="edgeW_edgeE" depart="113" departLane="random" />
    <vehicle id="uturnW_50" type="length_5" route="edgeW_edgeW" depart="116" departLane="2" />
    <vehicle id="rightE_51" type="length_5" route="edgeE_edgeN" depart="116" departLane="0" />
    <vehicle id="rightE_52" type="length_5" route="edgeE_edgeN" depart="121" departLane="0" />
    <vehicle id="uturnE_53" type="length_5" route="edgeE_edgeE" depart="130" departLane="2" />
    <vehicle id="leftE_54" type="length_5" route="edgeE_edgeS" depart="132" departLane="2" />
    <vehicle id="leftE_55" type="length_5" route="edgeE_edgeS" depart="135" departLane="2" />
    <vehicle id="straightW_56" type="length_5" route="edgeW_edgeE" depart="137" departLane="random" />
    <vehicle id="straightE_57" type="length_5" route="edgeE_edgeW" depart="137" departLane="random" />
    <vehicle id="leftE_58" type="length_5" route="edgeE_edgeS" depart="140" departLane="2" />
    <vehicle id="straightW_59" type="length_5" route="edgeW_edgeE" depart="141" departLane="random" />
    <vehicle id="leftW_60" type="length_5" route="edgeW_edgeN" depart="145" departLane="2" />
    <vehicle id="straightW_61" type="length_5" route="edgeW_edgeE" depart="146" departLane="random" />
    <vehicle id="rightW_62" type="length_5" route="edgeW_edgeS" depart="151" departLane="0" />
    <vehicle id="straightE_63" type="length_5" route="edgeE_edgeW" depart="154" departLane="random" />
    <vehicle id="rightW_64" type="length_5" route="edgeW_edgeS" depart="156" departLane="0" />
    <vehicle id="uturnE_65" type="length_5" route="edgeE_edgeE" depart="156" departLane="2" />
    <vehicle id="rightE_66" type="length_5" route="edgeE_edgeN" depart="157" departLane="0" />
    <vehicle id="straightE_67" type="length_5" route="edgeE_edgeW" depart="159" departLane="random" />
    <vehicle id="rightE_68" type="length_5" route="edgeE_edgeN" depart="166" departLane="0" />
    <vehicle id="rightW_69" type="length_5" route="edgeW_edgeS" depart="172" departLane="0" />
    <vehicle id="uturnW_70" type="length_5" route="edgeW_edgeW" depart="174" departLane="2" />
    <vehicle id="leftW_71" type="length_5" route="edgeW_edgeN" depart="177" departLane="2" />
    <vehicle id="leftW_72" type="length_5" route="edgeW_edgeN" depart="180" departLane="2" />
    <vehicle id="rightE_73" type="length_5" route="edgeE_edgeN" depart="185" departLane="0" />
    <vehicle id="uturnW_74" type="length_5" route="edgeW_edgeW" depart="190" departLane="2" />
    <vehicle id="rightE_75" type="length_5" route="edgeE_edgeN" depart="191" departLane="0" />
    <vehicle id="rightE_76" type="length_5" route="edgeE_edgeN" depart="193" departLane="0" />
    <vehicle id="rightW_77" type="length_5" route="edgeW_edgeS" depart="194" departLane="0" />
    <vehicle id="leftW_78" type="length_5" route="edgeW_edgeN" depart="196" departLane="2" />
    <vehicle id="uturnW_79" type="length_5" route="edgeW_edgeW" depart="198" departLane="2" />
    <vehicle id="leftW_80" type="length_5" route="edgeW_edgeN" depart="203" departLane="2" />
    <vehicle id="uturnE_81" type="length_5" route="edgeE_edgeE" depart="204" departLane="2" />
    <vehicle id="uturnE_82" type="length_5" route="edgeE_edgeE" depart="206" departLane="2" />
    <vehicle id="rightE_83" type="length_5" route="edgeE_edgeN" depart="209" departLane="0" />
    <vehicle id="straightE_84" type="length_5" route="edgeE_edgeW" depart="210" departLane="random" />
    <vehicle id="leftW_85" type="length_5" route="edgeW_edgeN" depart="215" departLane="2" />
    <vehicle id="straightE_86" type="length_5" route="edgeE_edgeW" depart="215" departLane="random" />
    <vehicle id="uturnW_87" type="length_5" route="edgeW_edgeW" depart="216" departLane="2" />
    <vehicle id="straightE_88" type="length_5" route="edgeE_edgeW" depart="217" departLane="random" />
    <vehicle id="straightW_89" type="length_5" route="edgeW_edgeE" depart="221" departLane="random" />
    <vehicle id="uturnW_90" type="length_5" route="edgeW_edgeW" depart="228" departLane="2" />
    <vehicle id="rightW_91" type="length_5" route="edgeW_edgeS" depart="229" departLane="0" />
    <vehicle id="straightE_92" type="length_5" route="edgeE_edgeW" depart="231" departLane="random" />
    <vehicle id="rightW_93" type="length_5" route="edgeW_edgeS" depart="232" departLane="0" />
    <vehicle id="rightE_94" type="length_5" route="edgeE_edgeN" depart="234" departLane="0" />
    <vehicle id="straightW_95" type="length_5" route="edgeW_edgeE" depart="237" departLane="random" />
    <vehicle id="straightW_96" type="length_5" route="edgeW_edgeE" depart="239" departLane="random" />
    <vehicle id="uturnW_97" type="length_5" route="edgeW_edgeW" depart="241" departLane="2" />
    <vehicle id="uturnE_98" type="length_5" route="edgeE_edgeE" depart="242" departLane="2" />
    <vehicle id="rightE_99" type="length_5" route="edgeE_edgeN" depart="243" departLane="0" />
    <vehicle id="uturnE_100" type="length_5" route="edgeE_edgeE" depart="244" departLane="2" />
    <vehicle id="leftE_101" type="length_5" route="edgeE_edgeS" depart="245" departLane="2" />
    <vehicle id="leftE_102" type="length_5" route="edgeE_edgeS" depart="247" departLane="2" />
    <vehicle id="uturnW_103" type="length_5" route="edgeW_edgeW" depart="249" departLane="2" />
    <vehicle id="straightW_104" type="length_5" route="edgeW_edgeE" depart="251" departLane="random" />
    <vehicle id="leftW_105" type="length_5" route="edgeW_edgeN" depart="252" departLane="2" />
    <vehicle id="uturnE_106" type="length_5" route="edgeE_edgeE" depart="253" departLane="2" />
    <vehicle id="uturnW_107" type="length_5" route="edgeW_edgeW" depart="256" departLane="2" />
    <vehicle id="uturnW_108" type="length_5" route="edgeW_edgeW" depart="257" departLane="2" />
    <vehicle id="rightE_109" type="length_5" route="edgeE_edgeN" depart="257" departLane="0" />
    <vehicle id="leftW_110" type="length_5" route="edgeW_edgeN" depart="261" departLane="2" />
    <vehicle id="rightE_111" type="length_5" route="edgeE_edgeN" depart="261" departLane="0" />
    <vehicle id="rightW_112" type="length_5" route="edgeW_edgeS" depart="263" departLane="0" />
    <vehicle id="rightW_113" type="length_5" route="edgeW_edgeS" depart="264" departLane="0" />
    <vehicle id="leftW_114" type="length_5" route="edgeW_edgeN" depart="266" departLane="2" />
    <vehicle id="leftE_115" type="length_5" route="edgeE_edgeS" depart="267" departLane="2" />
    <vehicle id="leftE_116" type="length_5" route="edgeE_edgeS" depart="268" departLane="2" />
    <vehicle id="straightW_117" type="length_5" route="edgeW_edgeE" depart="270" departLane="random" />
    <vehicle id="leftE_118" type="length_5" route="edgeE_edgeS" depart="270" departLane="2" />
    <vehicle id="rightW_119" type="length_5" route="edgeW_edgeS" depart="273" departLane="0" />
    <vehicle id="leftW_120" type="length_5" route="edgeW_edgeN" depart="280" departLane="2" />
    <vehicle id="leftE_121" type="length_5" route="edgeE_edgeS" depart="282" departLane="2" />
    <vehicle id="rightE_122" type="length_5" route="edgeE_edgeN" depart="288" departLane="0" />
    <vehicle id="uturnE_123" type="length_5" route="edgeE_edgeE" depart="291" departLane="2" />
    <vehicle id="leftW_124" type="length_5" route="edgeW_edgeN" depart="293" departLane="2" />
    <vehicle id="rightE_125" type="length_5" route="edgeE_edgeN" depart="296" departLane="0" />
    <vehicle id="uturnE_126" type="length_5" route="edgeE_edgeE" depart="298" departLane="2" />
    <vehicle id="leftW_127" type="length_5" route="edgeW_edgeN" depart="299" departLane="2" />
    <vehicle id="rightW_128" type="length_5" route="edgeW_edgeS" depart="302" departLane="0" />
    <vehicle id="straightW_129" type="length_5" route="edgeW_edgeE" depart="305" departLane="random" />
    <vehicle id="rightE_130" type="length_5" route="edgeE_edgeN" depart="307" departLane="0" />
    <vehicle id="uturnE_131" type="length_5" route="edgeE_edgeE" depart="308" departLane="2" />
    <vehicle id="leftW_132" type="length_5" route="edgeW_edgeN" depart="309" departLane="2" />
    <vehicle id="straightW_133" type="length_5" route="edgeW_edgeE" depart="310" departLane="random" />
    <vehicle id="uturnW_134" type="length_5" route="edgeW_edgeW" depart="311" departLane="2" />
    <vehicle id="straightW_135" type="length_5" route="edgeW_edgeE" depart="313" departLane="random" />
    <vehicle id="straightW_136" type="length_5" route="edgeW_edgeE" depart="316" departLane="random" />
    <vehicle id="rightE_137" type="length_5" route="edgeE_edgeN" depart="319" departLane="0" />
    <vehicle id="uturnW_138" type="length_5" route="edgeW_edgeW" depart="320" departLane="2" />
    <vehicle id="leftE_139" type="length_5" route="edgeE_edgeS" depart="321" departLane="2" />
    <vehicle id="rightW_140" type="length_5" route="edgeW_edgeS" depart="323" departLane="0" />
    <vehicle id="straightW_141" type="length_5" route="edgeW_edgeE" depart="326" departLane="random" />
    <vehicle id="rightE_142" type="length_5" route="edgeE_edgeN" depart="326" departLane="0" />
    <vehicle id="rightE_143" type="length_5" route="edgeE_edgeN" depart="328" departLane="0" />
    <vehicle id="rightE_144" type="length_5" route="edgeE_edgeN" depart="329" departLane="0" />
    <vehicle id="rightW_145" type="length_5" route="edgeW_edgeS" depart="330" departLane="0" />
    <vehicle id="leftW_146" type="length_5" route="edgeW_edgeN" depart="333" departLane="2" />
    <vehicle id="rightE_147" type="length_5" route="edgeE_edgeN" depart="337" departLane="0" />
    <vehicle id="straightE_148" type="length_5" route="edgeE_edgeW" depart="339" departLane="random" />
    <vehicle id="leftE_149" type="length_5" route="edgeE_edgeS" depart="343" departLane="2" />
    <vehicle id="leftE_150" type="length_5" route="edgeE_edgeS" depart="347" departLane="2" />
    <vehicle id="leftE_151" type="length_5" route="edgeE_edgeS" depart="349" departLane="2" />
    <vehicle id="straightE_152" type="length_5" route="edgeE_edgeW" depart="350" departLane="random" />
    <vehicle id="rightE_153" type="length_5" route="edgeE_edgeN" depart="353" departLane="0" />
    <vehicle id="leftE_154" type="length_5" route="edgeE_edgeS" depart="358" departLane="2" />
    <vehicle id="straightW_155" type="length_5" route="edgeW_edgeE" depart="359" departLane="random" />
    <vehicle id="uturnE_156" type="length_5" route="edgeE_edgeE" depart="370" departLane="2" />
    <vehicle id="straightW_157" type="length_5" route="edgeW_edgeE" depart="372" departLane="random" />
    <vehicle id="straightE_158" type="length_5" route="edgeE_edgeW" depart="372" departLane="random" />
    <vehicle id="straightE_159" type="length_5" route="edgeE_edgeW" depart="373" departLane="random" />
    <vehicle id="uturnW_160" type="length_5" route="edgeW_edgeW" depart="374" departLane="2" />
    <vehicle id="leftE_161" type="length_5" route="edgeE_edgeS" depart="375" departLane="2" />
    <vehicle id="leftW_162" type="length_5" route="edgeW_edgeN" depart="377" departLane="2" />
    <vehicle id="uturnW_163" type="length_5" route="edgeW_edgeW" depart="400" departLane="2" />
    <vehicle id="rightE_164" type="length_5" route="edgeE_edgeN" depart="401" departLane="0" />
    <vehicle id="rightW_165" type="length_5" route="edgeW_edgeS" depart="402" departLane="0" />
    <vehicle id="uturnW_166" type="length_5" route="edgeW_edgeW" depart="404" departLane="2" />
    <vehicle id="leftW_167" type="length_5" route="edgeW_edgeN" depart="408" departLane="2" />
    <vehicle id="leftW_168" type="length_5" route="edgeW_edgeN" depart="410" departLane="2" />
    <vehicle id="straightE_169" type="length_5" route="edgeE_edgeW" depart="411" departLane="random" />
    <vehicle id="rightW_170" type="length_5" route="edgeW_edgeS" depart="414" departLane="0" />
    <vehicle id="straightW_171" type="length_5" route="edgeW_edgeE" depart="416" departLane="random" />
    <vehicle id="straightE_172" type="length_5" route="edgeE_edgeW" depart="424" departLane="random" />
    <vehicle id="uturnE_173" type="length_5" route="edgeE_edgeE" depart="428" departLane="2" />
    <vehicle id="straightW_174" type="length_5" route="edgeW_edgeE" depart="433" departLane="random" />
    <vehicle id="uturnE_175" type="length_5" route="edgeE_edgeE" depart="433" departLane="2" />
    <vehicle id="uturnW_176" type="length_5" route="edgeW_edgeW" depart="437" departLane="2" />
    <vehicle id="leftW_177" type="length_5" route="edgeW_edgeN" depart="438" departLane="2" />
    <vehicle id="uturnW_178" type="length_5" route="edgeW_edgeW" depart="440" departLane="2" />
    <vehicle id="uturnE_179" type="length_5" route="edgeE_edgeE" depart="440" departLane="2" />
    <vehicle id="rightE_180" type="length_5" route="edgeE_edgeN" depart="441" departLane="0" />
    <vehicle id="straightW_181" type="length_5" route="edgeW_edgeE" depart="443" departLane="random" />
    <vehicle id="rightE_182" type="length_5" route="edgeE_edgeN" depart="443" departLane="0" />
    <vehicle id="leftE_183" type="length_5" route="edgeE_edgeS" depart="447" departLane="2" />
    <vehicle id="rightW_184" type="length_5" route="edgeW_edgeS" depart="452" departLane="0" />
    <vehicle id="rightW_185" type="length_5" route="edgeW_edgeS" depart="461" departLane="0" />
    <vehicle id="leftW_186" type="length_5" route="edgeW_edgeN" depart="463" departLane="2" />
    <vehicle id="uturnW_187" type="length_5" route="edgeW_edgeW" depart="464" departLane="2" />
    <vehicle id="leftW_188" type="length_5" route="edgeW_edgeN" depart="465" departLane="2" />
    <vehicle id="leftE_189" type="length_5" route="edgeE_edgeS" depart="471" departLane="2" />
    <vehicle id="straightE_190" type="length_5" route="edgeE_edgeW" depart="477" departLane="random" />
    <vehicle id="straightW_191" type="length_5" route="edgeW_edgeE" depart="485" departLane="random" />
    <vehicle id="leftE_192" type="length_5" route="edgeE_edgeS" depart="485" departLane="2" />
    <vehicle id="leftE_193" type="length_5" route="edgeE_edgeS" depart="486" departLane="2" />
    <vehicle id="straightW_194" type="length_5" route="edgeW_edgeE" depart="490" departLane="random" />
    <vehicle id="uturnW_195" type="length_5" route="edgeW_edgeW" depart="496" departLane="2" />
    <vehicle id="straightE_196" type="length_5" route="edgeE_edgeW" depart="496" departLane="random" />
    <vehicle id="leftW_197" type="length_5" route="edgeW_edgeN" depart="498" departLane="2" />
    <vehicle id="rightE_198" type="length_5" route="edgeE_edgeN" depart="501" departLane="0" />
    <vehicle id="rightE_199" type="length_5" route="edgeE_edgeN" depart="502" departLane="0" />
    <vehicle id="uturnW_200" type="length_5" route="edgeW_edgeW" depart="503" departLane="2" />
    <vehicle id="straightE_201" type="length_5" route="edgeE_edgeW" depart="503" departLane="random" />
    <vehicle id="straightW_202" type="length_5" route="edgeW_edgeE" depart="505" departLane="random" />
    <vehicle id="leftE_203" type="length_5" route="edgeE_edgeS" depart="507" departLane="2" />
    <vehicle id="uturnE_204" type="length_5" route="edgeE_edgeE" depart="508" departLane="2" />
    <vehicle id="rightW_205" type="length_5" route="edgeW_edgeS" depart="509" departLane="0" />
    <vehicle id="rightE_206" type="length_5" route="edgeE_edgeN" depart="511" departLane="0" />
    <vehicle id="straightE_207" type="length_5" route="edgeE_edgeW" depart="512" departLane="random" />
    <vehicle id="straightW_208" type="length_5" route="edgeW_edgeE" depart="514" departLane="random" />
    <vehicle id="rightE_209" type="length_5" route="edgeE_edgeN" depart="515" departLane="0" />
    <vehicle id="rightW_210" type="length_5" route="edgeW_edgeS" depart="520" departLane="0" />
    <vehicle id="uturnW_211" type="length_5" route="edgeW_edgeW" depart="528" departLane="2" />
    <vehicle id="straightE_212" type="length_5" route="edgeE_edgeW" depart="528" departLane="random" />
    <vehicle id="straightE_213" type="length_5" route="edgeE_edgeW" depart="531" departLane="random" />
    <vehicle id="uturnW_214" type="length_5" route="edgeW_edgeW" depart="533" departLane="2" />
    <vehicle id="straightE_215" type="length_5" route="edgeE_edgeW" depart="533" departLane="random" />
    <vehicle id="uturnW_216" type="length_5" route="edgeW_edgeW" depart="535" departLane="2" />
    <vehicle id="straightE_217" type="length_5" route="edgeE_edgeW" depart="536" departLane="random" />
    <vehicle id="rightE_218" type="length_5" route="edgeE_edgeN" depart="537" departLane="0" />
    <vehicle id="leftW_219" type="length_5" route="edgeW_edgeN" depart="539" departLane="2" />
    <vehicle id="uturnW_220" type="length_5" route="edgeW_edgeW" depart="543" departLane="2" />
    <vehicle id="leftW_221" type="length_5" route="edgeW_edgeN" depart="545" departLane="2" />
    <vehicle id="leftE_222" type="length_5" route="edgeE_edgeS" depart="548" departLane="2" />
    <vehicle id="uturnW_223" type="length_5" route="edgeW_edgeW" depart="553" departLane="2" />
    <vehicle id="leftE_224" type="length_5" route="edgeE_edgeS" depart="553" departLane="2" />
    <vehicle id="straightW_225" type="length_5" route="edgeW_edgeE" depart="554" departLane="random" />
    <vehicle id="straightE_226" type="length_5" route="edgeE_edgeW" depart="554" departLane="random" />
    <vehicle id="rightW_227" type="length_5" route="edgeW_edgeS" depart="556" departLane="0" />
    <vehicle id="leftE_228" type="length_5" route="edgeE_edgeS" depart="557" departLane="2" />
    <vehicle id="leftW_229" type="length_5" route="edgeW_edgeN" depart="559" departLane="2" />
    <vehicle id="leftW_230" type="length_5" route="edgeW_edgeN" depart="560" departLane="2" />
    <vehicle id="uturnE_231" type="length_5" route="edgeE_edgeE" depart="561" departLane="2" />
    <vehicle id="straightW_232" type="length_5" route="edgeW_edgeE" depart="566" departLane="random" />
    <vehicle id="straightW_233" type="length_5" route="edgeW_edgeE" depart="568" departLane="random" />
    <vehicle id="uturnE_234" type="length_5" route="edgeE_edgeE" depart="568" departLane="2" />
    <vehicle id="leftE_235" type="length_5" route="edgeE_edgeS" depart="574" departLane="2" />
    <vehicle id="straightE_236" type="length_5" route="edgeE_edgeW" depart="575" departLane="random" />
    <vehicle id="leftE_237" type="length_5" route="edgeE_edgeS" depart="578" departLane="2" />
    <vehicle id="rightW_238" type="length_5" route="edgeW_edgeS" depart="579" departLane="0" />
    <vehicle id="rightW_239" type="length_5" route="edgeW_edgeS" depart="580" departLane="0" />
    <vehicle id="straightW_240" type="length_5" route="edgeW_edgeE" depart="584" departLane="random" />
    <vehicle id="straightE_241" type="length_5" route="edgeE_edgeW" depart="584" departLane="random" />
    <vehicle id="leftE_242" type="length_5" route="edgeE_edgeS" depart="586" departLane="2" />
    <vehicle id="rightW_243" type="length_5" route="edgeW_edgeS" depart="587" departLane="0" />
    <vehicle id="uturnE_244" type="length_5" route="edgeE_edgeE" depart="587" departLane="2" />
    <vehicle id="straightW_245" type="length_5" route="edgeW_edgeE" depart="589" departLane="random" />
    <vehicle id="rightE_246" type="length_5" route="edgeE_edgeN" depart="596" departLane="0" />
    <vehicle id="straightW_247" type="length_5" route="edgeW_edgeE" depart="601" departLane="random" />
    <vehicle id="rightW_248" type="length_5" route="edgeW_edgeS" depart="602" departLane="0" />
    <vehicle id="straightW_249" type="length_5" route="edgeW_edgeE" depart="604" departLane="random" />
    <vehicle id="uturnE_250" type="length_5" route="edgeE_edgeE" depart="604" departLane="2" />
    <vehicle id="straightE_251" type="length_5" route="edgeE_edgeW" depart="606" departLane="random" />
    <vehicle id="rightE_252" type="length_5" route="edgeE_edgeN" depart="608" departLane="0" />
    <vehicle id="rightW_253" type="length_5" route="edgeW_edgeS" depart="610" departLane="0" />
    <vehicle id="rightE_254" type="length_5" route="edgeE_edgeN" depart="613" departLane="0" />
    <vehicle id="uturnE_255" type="length_5" route="edgeE_edgeE" depart="618" departLane="2" />
    <vehicle id="leftW_256" type="length_5" route="edgeW_edgeN" depart="621" departLane="2" />
    <vehicle id="straightW_257" type="length_5" route="edgeW_edgeE" depart="622" departLane="random" />
    <vehicle id="leftE_258" type="length_5" route="edgeE_edgeS" depart="622" departLane="2" />
    <vehicle id="leftW_259" type="length_5" route="edgeW_edgeN" depart="628" departLane="2" />
    <vehicle id="straightW_260" type="length_5" route="edgeW_edgeE" depart="629" departLane="random" />
    <vehicle id="uturnW_261" type="length_5" route="edgeW_edgeW" depart="630" departLane="2" />
    <vehicle id="uturnE_262" type="length_5" route="edgeE_edgeE" depart="631" departLane="2" />
    <vehicle id="leftW_263" type="length_5" route="edgeW_edgeN" depart="633" departLane="2" />
    <vehicle id="straightE_264" type="length_5" route="edgeE_edgeW" depart="637" departLane="random" />
    <vehicle id="straightE_265" type="length_5" route="edgeE_edgeW" depart="638" departLane="random" />
    <vehicle id="uturnW_266" type="length_5" route="edgeW_edgeW" depart="641" departLane="2" />
    <vehicle id="uturnE_267" type="length_5" route="edgeE_edgeE" depart="642" departLane="2" />
    <vehicle id="rightE_268" type="length_5" route="edgeE_edgeN" depart="644" departLane="0" />
    <vehicle id="uturnE_269" type="length_5" route="edgeE_edgeE" depart="652" departLane="2" />
    <vehicle id="uturnE_270" type="length_5" route="edgeE_edgeE" depart="654" departLane="2" />
    <vehicle id="straightE_271" type="length_5" route="edgeE_edgeW" depart="655" departLane="random" />
    <vehicle id="straightW_272" type="length_5" route="edgeW_edgeE" depart="661" departLane="random" />
    <vehicle id="leftE_273" type="length_5" route="edgeE_edgeS" depart="662" departLane="2" />
    <vehicle id="rightE_274" type="length_5" route="edgeE_edgeN" depart="663" departLane="0" />
    <vehicle id="rightE_275" type="length_5" route="edgeE_edgeN" depart="666" departLane="0" />
    <vehicle id="rightW_276" type="length_5" route="edgeW_edgeS" depart="667" departLane="0" />
    <vehicle id="straightW_277" type="length_5" route="edgeW_edgeE" depart="672" departLane="random" />
    <vehicle id="straightW_278" type="length_5" route="edgeW_edgeE" depart="675" departLane="random" />
    <vehicle id="leftW_279" type="length_5" route="edgeW_edgeN" depart="679" departLane="2" />
    <vehicle id="straightW_280" type="length_5" route="edgeW_edgeE" depart="681" departLane="random" />
    <vehicle id="rightW_281" type="length_5" route="edgeW_edgeS" depart="684" departLane="0" />
    <vehicle id="straightW_282" type="length_5" route="edgeW_edgeE" depart="687" departLane="random" />
    <vehicle id="leftE_283" type="length_5" route="edgeE_edgeS" depart="688" departLane="2" />
    <vehicle id="rightE_284" type="length_5" route="edgeE_edgeN" depart="689" departLane="0" />
    <vehicle id="straightE_285" type="length_5" route="edgeE_edgeW" depart="693" departLane="random" />
    <vehicle id="leftE_286" type="length_5" route="edgeE_edgeS" depart="694" departLane="2" />
    <vehicle id="leftE_287" type="length_5" route="edgeE_edgeS" depart="695" departLane="2" />
    <vehicle id="leftE_288" type="length_5" route="edgeE_edgeS" depart="697" departLane="2" />
    <vehicle id="uturnW_289" type="length_5" route="edgeW_edgeW" depart="702" departLane="2" />
    <vehicle id="leftW_290" type="length_5" route="edgeW_edgeN" depart="703" departLane="2" />
    <vehicle id="leftW_291" type="length_5" route="edgeW_edgeN" depart="704" departLane="2" />
    <vehicle id="leftE_292" type="length_5" route="edgeE_edgeS" depart="707" departLane="2" />
    <vehicle id="rightW_293" type="length_5" route="edgeW_edgeS" depart="708" departLane="0" />
    <vehicle id="straightE_294" type="length_5" route="edgeE_edgeW" depart="717" departLane="random" />
    <vehicle id="uturnW_295" type="length_5" route="edgeW_edgeW" depart="724" departLane="2" />
    <vehicle id="uturnE_296" type="length_5" route="edgeE_edgeE" depart="724" departLane="2" />
    <vehicle id="uturnE_297" type="length_5" route="edgeE_edgeE" depart="725" departLane="2" />