<routes>
   <personFlow id="pRegN" begin="0" end="3000" personsPerHour="842.815962">
        <walk edges="edgeN_O edgeS_I" speed="2.208418"/>
    </personFlow>
   <personFlow id="pRegS" begin="0" end="3000" personsPerHour="680.727737">
        <walk edges="edgeS_O edgeN_I" speed="1.006261"/>
    </personFlow>
   <personFlow id="pRegW" begin="0" end="3000" personsPerHour="1011.572210">
        <walk edges="edgeW_O edgeE_I" speed="1.259144"/>
    </personFlow>
   <personFlow id="pRegE" begin="0" end="3000" personsPerHour="795.258846">
        <walk edges="edgeE_O edgeW_I" speed="1.062459"/>
    </personFlow>
   <personFlow id="pOppN" begin="0" end="3000" personsPerHour="212.129750" departPos="800.000000">
        <walk edges="edgeN_I edgeS_O" speed="1.588126"/>
    </personFlow>
   <personFlow id="pOppS" begin="0" end="3000" personsPerHour="370.371819" departPos="600.000000">
        <walk edges="edgeS_I edgeN_O" speed="2.234594"/>
    </personFlow>
   <personFlow id="pOppW" begin="0" end="3000" personsPerHour="685.327670" departPos="700.000000">
        <walk edges="edgeW_I edgeE_O" speed="1.771565"/>
    </personFlow>
   <personFlow id="pOppE" begin="0" end="3000" personsPerHour="110.069807" departPos="400.000000">
        <walk edges="edgeE_I edgeW_O" speed="1.597926"/>
    </personFlow>

    <route id="edgeN_edgeN" edges="edgeN_O edgeN_I" />
    <route id="edgeN_edgeS" edges="edgeN_O edgeS_I" />
    <route id="edgeN_edgeW" edges="edgeN_O edgeW_I" />
    <route id="edgeN_edgeE" edges="edgeN_O edgeE_I" />
    <route id="edgeS_edgeN" edges="edgeS_O edgeN_I" />
    <route id="edgeS_edgeS" edges="edgeS_O edgeS_I" />
    <route id="edgeS_edgeW" edges="edgeS_O edgeW_I" />
    <route id="edgeS_edgeE" edges="edgeS_O edgeE_I" />
    <route id="edgeW_edgeN" edges="edgeW_O edgeN_I" />
    <route id="edgeW_edgeS" edges="edgeW_O edgeS_I" />
    <route id="edgeW_edgeW" edges="edgeW_O edgeW_I" />
    <route id="edgeW_edgeE" edges="edgeW_O edgeE_I" />
    <route id="edgeE_edgeN" edges="edgeE_O edgeN_I" />
    <route id="edgeE_edgeS" edges="edgeE_O edgeS_I" />
    <route id="edgeE_edgeW" edges="edgeE_O edgeW_I" />
    <route id="edgeE_edgeE" edges="edgeE_O edgeE_I" />
    
   <vType id="vehicleS_0" length="4.288000" accel="3.217000" decel="4.948000" sigma="0.5" minGap="2.515073" maxSpeed="146.802112" guiShape="passenger" />
   <vehicle id="straightS_0" type="vehicleS_0" route="edgeS_edgeN" depart="0" departLane="2" />

   <vType id="vehicleE_1" length="4.305000" accel="3.015000" decel="4.566000" sigma="0.5" minGap="2.515073" maxSpeed="146.802112" guiShape="passenger" />
   <vehicle id="leftE_1" type="vehicleE_1" route="edgeE_edgeS" depart="0" departLane="2" />

   <vType id="vehicleN_2" length="5.319000" accel="2.120000" decel="5.376000" sigma="0.5" minGap="2.515073" maxSpeed="146.802112" guiShape="passenger" />
   <vehicle id="straightN_2" type="vehicleN_2" route="edgeN_edgeS" depart="1" departLane="2" />

   <vType id="vehicleW_3" length="4.488000" accel="2.250000" decel="3.028000" sigma="0.5" minGap="2.515073" maxSpeed="146.802112" guiShape="passenger" />
   <vehicle id="rightW_3" type="vehicleW_3" route="edgeW_edgeS" depart="1" departLane="2" />

   <vType id="vehicleE_4" length="4.405000" accel="2.230000" decel="3.478000" sigma="0.5" minGap="2.515073" maxSpeed="146.802112" guiShape="passenger" />
   <vehicle id="straightE_4" type="vehicleE_4" route="edgeE_edgeW" depart="4" departLane="1" />

   <vType id="vehicleE_5" length="5.074000" accel="3.165000" decel="4.971000" sigma="0.5" minGap="2.515073" maxSpeed="146.802112" guiShape="passenger" />
   <vehicle id="straightE_5" type="vehicleE_5" route="edgeE_edgeW" depart="5" departLane="1" />

   <vType id="vehicleS_6" length="4.183000" accel="2.681000" decel="5.984000" sigma="0.5" minGap="2.515073" maxSpeed="146.802112" guiShape="passenger" />
   <vehicle id="straightS_6" type="vehicleS_6" route="edgeS_edgeN" depart="6" departLane="2" />

   <vType id="vehicleS_7" length="4.451000" accel="2.513000" decel="3.406000" sigma="0.5" minGap="2.515073" maxSpeed="146.802112" guiShape="passenger" />
   <vehicle id="leftS_7" type="vehicleS_7" route="edgeS_edgeW" depart="7" departLane="3" />

   <vType id="vehicleW_8" length="5.452000" accel="3.077000" decel="3.180000" sigma="0.5" minGap="2.515073" maxSpeed="146.802112" guiShape="passenger" />
   <vehicle id="straightW_8" type="vehicleW_8" route="edgeW_edgeE" depart="7" departLane="1" />

   <vType id="vehicleE_9" length="4.358000" accel="2.989000" decel="5.681000" sigma="0.5" minGap="2.515073" maxSpeed="146.802112" guiShape="passenger" />
   <vehicle id="straightE_9" type="vehicleE_9" route="edgeE_edgeW" depart="7" departLane="2" />

   <vType id="vehicleW_10" length="5.225000" accel="3.405000" decel="3.213000" sigma="0.5" minGap="2.515073" maxSpeed="146.802112" guiShape="passenger" />
   <vehicle id="straightW_10" type="vehicleW_10" route="edgeW_edgeE" depart="8" departLane="1" />

   <vType id="vehicleS_11" length="5.648000" accel="2.906000" decel="5.923000" sigma="0.5" minGap="2.515073" maxSpeed="146.802112" guiShape="passenger" />
   <vehicle id="straightS_11" type="vehicleS_11" route="edgeS_edgeN" depart="9" departLane="2" />

   <vType id="vehicleE_12" length="5.216000" accel="3.266000" decel="3.834000" sigma="0.5" minGap="2.515073" maxSpeed="146.802112" guiShape="passenger" />
   <vehicle id="rightE_12" type="vehicleE_12" route="edgeE_edgeN" depart="9" departLane="2" />

   <vType id="vehicleW_13" length="5.427000" accel="2.559000" decel="4.823000" sigma="0.5" minGap="2.515073" maxSpeed="146.802112" guiShape="passenger" />
   <vehicle id="rightW_13" type="vehicleW_13" route="edgeW_edgeS" depart="11" departLane="1" />

   <vType id="vehicleE_14" length="4.844000" accel="3.281000" decel="4.464000" sigma="0.5" minGap="2.515073" maxSpeed="146.802112" guiShape="passenger" />
   <vehicle id="rightE_14" type="vehicleE_14" route="edgeE_edgeN" depart="11" departLane="1" />

   <vType id="vehicleW_15" length="5.629000" accel="3.323000" decel="3.500000" sigma="0.5" minGap="2.515073" maxSpeed="146.802112" guiShape="passenger" />
   <vehicle id="straightW_15" type="vehicleW_15" route="edgeW_edgeE" depart="12" departLane="1" />

   <vType id="vehicleS_16" length="4.018000" accel="3.254000" decel="5.244000" sigma="0.5" minGap="2.515073" maxSpeed="146.802112" guiShape="passenger" />
   <vehicle id="straightS_16" type="vehicleS_16" route="edgeS_edgeN" depart="13" departLane="2" />

   <vType id="vehicleN_17" length="4.963000" accel="3.560000" decel="5.784000" sigma="0.5" minGap="2.515073" maxSpeed="146.802112" guiShape="passenger" />
   <vehicle id="straightN_17" type="vehicleN_17" route="edgeN_edgeS" depart="14" departLane="2" />

   <vType id="vehicleE_18" length="3.933000" accel="2.943000" decel="4.656000" sigma="0.5" minGap="2.515073" maxSpeed="146.802112" guiShape="passenger" />
   <vehicle id="leftE_18" type="vehicleE_18" route="edgeE_edgeS" depart="15" departLane="2" />

   <vType id="vehicleN_19" length="4.299000" accel="3.471000" decel="5.554000" sigma="0.5" minGap="2.515073" maxSpeed="146.802112" guiShape="passenger" />
   <vehicle id="straightN_19" type="vehicleN_19" route="edgeN_edgeS" depart="16" departLane="2" />

   <vType id="vehicleN_20" length="4.612000" accel="2.252000" decel="4.890000" sigma="0.5" minGap="2.515073" maxSpeed="146.802112" guiShape="passenger" />
   <vehicle id="straightN_20" type="vehicleN_20" route="edgeN_edgeS" depart="18" departLane="2" />

   <vType id="vehicleW_21" length="4.493000" accel="3.406000" decel="3.531000" sigma="0.5" minGap="2.515073" maxSpeed="146.802112" guiShape="passenger" />
   <vehicle id="straightW_21" type="vehicleW_21" route="edgeW_edgeE" depart="19" departLane="1" />

   <vType id="vehicleN_22" length="4.709000" accel="3.425000" decel="2.957000" sigma="0.5" minGap="2.515073" maxSpeed="146.802112" guiShape="passenger" />
   <vehicle id="leftN_22" type="vehicleN_22" route="edgeN_edgeE" depart="20" departLane="3" />

   <vType id="vehicleS_23" length="5.366000" accel="3.567000" decel="5.775000" sigma="0.5" minGap="2.515073" maxSpeed="146.802112" guiShape="passenger" />
   <vehicle id="uturnS_23" type="vehicleS_23" route="edgeS_edgeS" depart="20" departLane="3" />

   <vType id="vehicleE_24" length="4.272000" accel="2.713000" decel="2.901000" sigma="0.5" minGap="2.515073" maxSpeed="146.802112" guiShape="passenger" />
   <vehicle id="straightE_24" type="vehicleE_24" route="edgeE_edgeW" depart="20" departLane="2" />

   <vType id="vehicleN_25" length="5.525000" accel="3.291000" decel="3.652000" sigma="0.5" minGap="2.515073" maxSpeed="146.802112" guiShape="passenger" />
   <vehicle id="straightN_25" type="vehicleN_25" route="edgeN_edgeS" depart="21" departLane="2" />

   <vType id="vehicleS_26" length="5.599000" accel="2.981000" decel="4.503000" sigma="0.5" minGap="2.515073" maxSpeed="146.802112" guiShape="passenger" />
   <vehicle id="straightS_26" type="vehicleS_26" route="edgeS_edgeN" depart="21" departLane="2" />

   <vType id="vehicleW_27" length="4.780000" accel="3.392000" decel="3.229000" sigma="0.5" minGap="2.515073" maxSpeed="146.802112" guiShape="passenger" />
   <vehicle id="straightW_27" type="vehicleW_27" route="edgeW_edgeE" depart="21" departLane="1" />

   <vType id="vehicleN_28" length="5.411000" accel="2.717000" decel="5.826000" sigma="0.5" minGap="2.515073" maxSpeed="146.802112" guiShape="passenger" />
   <vehicle id="leftN_28" type="vehicleN_28" route="edgeN_edgeE" depart="22" departLane="3" />

   <vType id="vehicleW_29" length="5.052000" accel="2.960000" decel="3.755000" sigma="0.5" minGap="2.515073" maxSpeed="146.802112" guiShape="passenger" />
   <vehicle id="leftW_29" type="vehicleW_29" route="edgeW_edgeN" depart="22" departLane="2" />

   <vType id="vehicleE_30" length="4.316000" accel="2.705000" decel="4.932000" sigma="0.5" minGap="2.515073" maxSpeed="146.802112" guiShape="passenger" />
   <vehicle id="straightE_30" type="vehicleE_30" route="edgeE_edgeW" depart="22" departLane="2" />

   <vType id="vehicleE_31" length="4.886000" accel="2.260000" decel="4.488000" sigma="0.5" minGap="2.515073" maxSpeed="146.802112" guiShape="passenger" />
   <vehicle id="straightE_31" type="vehicleE_31" route="edgeE_edgeW" depart="23" departLane="2" />

   <vType id="vehicleN_32" length="4.017000" accel="2.477000" decel="3.651000" sigma="0.5" minGap="2.515073" maxSpeed="146.802112" guiShape="passenger" />
   <vehicle id="straightN_32" type="vehicleN_32" route="edgeN_edgeS" depart="24" departLane="2" />

   <vType id="vehicleW_33" length="4.422000" accel="3.108000" decel="5.817000" sigma="0.5" minGap="2.515073" maxSpeed="146.802112" guiShape="passenger" />
   <vehicle id="rightW_33" type="vehicleW_33" route="edgeW_edgeS" depart="25" departLane="1" />

   <vType id="vehicleE_34" length="5.201000" accel="2.344000" decel="3.640000" sigma="0.5" minGap="2.515073" maxSpeed="146.802112" guiShape="passenger" />
   <vehicle id="rightE_34" type="vehicleE_34" route="edgeE_edgeN" depart="25" departLane="1" />

   <vType id="vehicleS_35" length="4.360000" accel="2.845000" decel="5.706000" sigma="0.5" minGap="2.515073" maxSpeed="146.802112" guiShape="passenger" />
   <vehicle id="straightS_35" type="vehicleS_35" route="edgeS_edgeN" depart="26" departLane="2" />

   <vType id="vehicleW_36" length="4.383000" accel="2.116000" decel="5.261000" sigma="0.5" minGap="2.515073" maxSpeed="146.802112" guiShape="passenger" />
   <vehicle id="straightW_36" type="vehicleW_36" route="edgeW_edgeE" depart="26" departLane="2" />

   <vType id="vehicleE_37" length="5.137000" accel="2.954000" decel="3.078000" sigma="0.5" minGap="2.515073" maxSpeed="146.802112" guiShape="passenger" />
   <vehicle id="straightE_37" type="vehicleE_37" route="edgeE_edgeW" depart="26" departLane="1" />

   <vType id="vehicleE_38" length="4.438000" accel="3.462000" decel="5.344000" sigma="0.5" minGap="2.515073" maxSpeed="146.802112" guiShape="passenger" />
   <vehicle id="leftE_38" type="vehicleE_38" route="edgeE_edgeS" depart="27" departLane="2" />

   <vType id="vehicleS_39" length="4.077000" accel="3.283000" decel="5.635000" sigma="0.5" minGap="2.515073" maxSpeed="146.802112" guiShape="passenger" />
   <vehicle id="leftS_39" type="vehicleS_39" route="edgeS_edgeW" depart="28" departLane="3" />

   <vType id="vehicleS_40" length="5.302000" accel="2.376000" decel="4.073000" sigma="0.5" minGap="2.515073" maxSpeed="146.802112" guiShape="passenger" />
   <vehicle id="leftS_40" type="vehicleS_40" route="edgeS_edgeW" depart="29" departLane="3" />

   <vType id="vehicleW_41" length="5.406000" accel="2.445000" decel="5.412000" sigma="0.5" minGap="2.515073" maxSpeed="146.802112" guiShape="passenger" />
   <vehicle id="rightW_41" type="vehicleW_41" route="edgeW_edgeS" depart="31" departLane="2" />

   <vType id="vehicleW_42" length="4.597000" accel="2.529000" decel="2.937000" sigma="0.5" minGap="2.515073" maxSpeed="146.802112" guiShape="passenger" />
   <vehicle id="straightW_42" type="vehicleW_42" route="edgeW_edgeE" depart="32" departLane="2" />

   <vType id="vehicleN_43" length="4.355000" accel="2.983000" decel="5.965000" sigma="0.5" minGap="2.515073" maxSpeed="146.802112" guiShape="passenger" />
   <vehicle id="straightN_43" type="vehicleN_43" route="edgeN_edgeS" depart="34" departLane="2" />

   <vType id="vehicleS_44" length="5.177000" accel="2.582000" decel="4.715000" sigma="0.5" minGap="2.515073" maxSpeed="146.802112" guiShape="passenger" />
   <vehicle id="straightS_44" type="vehicleS_44" route="edgeS_edgeN" depart="34" departLane="2" />

   <vType id="vehicleW_45" length="4.843000" accel="3.192000" decel="5.165000" sigma="0.5" minGap="2.515073" maxSpeed="146.802112" guiShape="passenger" />
   <vehicle id="rightW_45" type="vehicleW_45" route="edgeW_edgeS" depart="35" departLane="1" />

   <vType id="vehicleN_46" length="4.477000" accel="2.582000" decel="5.516000" sigma="0.5" minGap="2.515073" maxSpeed="146.802112" guiShape="passenger" />
   <vehicle id="straightN_46" type="vehicleN_46" route="edgeN_edgeS" depart="36" departLane="2" />

   <vType id="vehicleW_47" length="4.563000" accel="3.235000" decel="3.284000" sigma="0.5" minGap="2.515073" maxSpeed="146.802112" guiShape="passenger" />
   <vehicle id="straightW_47" type="vehicleW_47" route="edgeW_edgeE" depart="37" departLane="2" />

   <vType id="vehicleW_48" length="4.963000" accel="2.595000" decel="4.170000" sigma="0.5" minGap="2.515073" maxSpeed="146.802112" guiShape="passenger" />
   <vehicle id="rightW_48" type="vehicleW_48" route="edgeW_edgeS" depart="38" departLane="1" />

   <vType id="vehicleE_49" length="4.309000" accel="2.577000" decel="5.379000" sigma="0.5" minGap="2.515073" maxSpeed="146.802112" guiShape="passenger" />
   <vehicle id="rightE_49" type="vehicleE_49" route="edgeE_edgeN" depart="40" departLane="1" />

   <vType id="vehicleN_50" length="4.731000" accel="3.388000" decel="2.948000" sigma="0.5" minGap="2.515073" maxSpeed="146.802112" guiShape="passenger" />
   <vehicle id="leftN_50" type="vehicleN_50" route="edgeN_edgeE" depart="41" departLane="3" />

   <vType id="vehicleW_51" length="5.466000" accel="3.404000" decel="5.640000" sigma="0.5" minGap="2.515073" maxSpeed="146.802112" guiShape="passenger" />
   <vehicle id="straightW_51" type="vehicleW_51" route="edgeW_edgeE" depart="42" departLane="2" />

   <vType id="vehicleE_52" length="5.120000" accel="2.809000" decel="4.553000" sigma="0.5" minGap="2.515073" maxSpeed="146.802112" guiShape="passenger" />
   <vehicle id="rightE_52" type="vehicleE_52" route="edgeE_edgeN" depart="42" departLane="1" />

   <vType id="vehicleE_53" length="5.017000" accel="3.262000" decel="4.434000" sigma="0.5" minGap="2.515073" maxSpeed="146.802112" guiShape="passenger" />
   <vehicle id="straightE_53" type="vehicleE_53" route="edgeE_edgeW" depart="46" departLane="1" />

   <vType id="vehicleS_54" length="4.374000" accel="2.591000" decel="4.496000" sigma="0.5" minGap="2.515073" maxSpeed="146.802112" guiShape="passenger" />
   <vehicle id="straightS_54" type="vehicleS_54" route="edgeS_edgeN" depart="47" departLane="2" />

   <vType id="vehicleW_55" length="4.165000" accel="2.432000" decel="4.081000" sigma="0.5" minGap="2.515073" maxSpeed="146.802112" guiShape="passenger" />
   <vehicle id="straightW_55" type="vehicleW_55" route="edgeW_edgeE" depart="47" departLane="2" />

   <vType id="vehicleS_56" length="5.487000" accel="2.988000" decel="5.011000" sigma="0.5" minGap="2.515073" maxSpeed="146.802112" guiShape="passenger" />
   <vehicle id="straightS_56" type="vehicleS_56" route="edgeS_edgeN" depart="48" departLane="2" />

   <vType id="vehicleW_57" length="5.420000" accel="2.383000" decel="3.569000" sigma="0.5" minGap="2.515073" maxSpeed="146.802112" guiShape="passenger" />
   <vehicle id="straightW_57" type="vehicleW_57" route="edgeW_edgeE" depart="54" departLane="2" />

   <vType id="vehicleE_58" length="5.235000" accel="2.680000" decel="5.198000" sigma="0.5" minGap="2.515073" maxSpeed="146.802112" guiShape="passenger" />
   <vehicle id="straightE_58" type="vehicleE_58" route="edgeE_edgeW" depart="54" departLane="2" />

   <vType id="vehicleN_59" length="3.930000" accel="2.921000" decel="6.019000" sigma="0.5" minGap="2.515073" maxSpeed="146.802112" guiShape="passenger" />
   <vehicle id="leftN_59" type="vehicleN_59" route="edgeN_edgeE" depart="55" departLane="3" />

   <vType id="vehicleS_60" length="5.579000" accel="2.171000" decel="2.810000" sigma="0.5" minGap="2.515073" maxSpeed="146.802112" guiShape="passenger" />
   <vehicle id="leftS_60" type="vehicleS_60" route="edgeS_edgeW" depart="55" departLane="3" />

   <vType id="vehicleW_61" length="4.164000" accel="2.300000" decel="4.924000" sigma="0.5" minGap="2.515073" maxSpeed="146.802112" guiShape="passenger" />
   <vehicle id="leftW_61" type="vehicleW_61" route="edgeW_edgeN" depart="55" departLane="2" />

   <vType id="vehicleW_62" length="4.914000" accel="3.507000" decel="4.614000" sigma="0.5" minGap="2.515073" maxSpeed="146.802112" guiShape="passenger" />
   <vehicle id="straightW_62" type="vehicleW_62" route="edgeW_edgeE" depart="57" departLane="2" />

   <vType id="vehicleS_63" length="4.999000" accel="2.263000" decel="5.266000" sigma="0.5" minGap="2.515073" maxSpeed="146.802112" guiShape="passenger" />
   <vehicle id="straightS_63" type="vehicleS_63" route="edgeS_edgeN" depart="58" departLane="2" />

   <vType id="vehicleN_64" length="5.059000" accel="2.214000" decel="4.852000" sigma="0.5" minGap="2.515073" maxSpeed="146.802112" guiShape="passenger" />
   <vehicle id="straightN_64" type="vehicleN_64" route="edgeN_edgeS" depart="59" departLane="2" />

   <vType id="vehicleE_65" length="5.014000" accel="3.356000" decel="5.050000" sigma="0.5" minGap="2.515073" maxSpeed="146.802112" guiShape="passenger" />
   <vehicle id="rightE_65" type="vehicleE_65" route="edgeE_edgeN" depart="59" departLane="2" />

   <vType id="vehicleN_66" length="5.040000" accel="3.036000" decel="5.753000" sigma="0.5" minGap="2.515073" maxSpeed="146.802112" guiShape="passenger" />
   <vehicle id="straightN_66" type="vehicleN_66" route="edgeN_edgeS" depart="60" departLane="2" />

   <vType id="vehicleS_67" length="4.386000" accel="2.788000" decel="5.193000" sigma="0.5" minGap="2.515073" maxSpeed="146.802112" guiShape="passenger" />
   <vehicle id="rightS_67" type="vehicleS_67" route="edgeS_edgeE" depart="61" departLane="2" />

   <vType id="vehicleE_68" length="4.944000" accel="3.433000" decel="4.548000" sigma="0.5" minGap="2.515073" maxSpeed="146.802112" guiShape="passenger" />
   <vehicle id="straightE_68" type="vehicleE_68" route="edgeE_edgeW" depart="62" departLane="1" />

   <vType id="vehicleN_69" length="4.755000" accel="3.250000" decel="4.994000" sigma="0.5" minGap="2.515073" maxSpeed="146.802112" guiShape="passenger" />
   <vehicle id="straightN_69" type="vehicleN_69" route="edgeN_edgeS" depart="63" departLane="2" />

   <vType id="vehicleW_70" length="4.607000" accel="2.476000" decel="4.906000" sigma="0.5" minGap="2.515073" maxSpeed="146.802112" guiShape="passenger" />
   <vehicle id="straightW_70" type="vehicleW_70" route="edgeW_edgeE" depart="63" departLane="2" />

   <vType id="vehicleW_71" length="4.235000" accel="2.290000" decel="4.482000" sigma="0.5" minGap="2.515073" maxSpeed="146.802112" guiShape="passenger" />
   <vehicle id="leftW_71" type="vehicleW_71" route="edgeW_edgeN" depart="65" departLane="2" />

   <vType id="vehicleE_72" length="4.382000" accel="2.997000" decel="5.225000" sigma="0.5" minGap="2.515073" maxSpeed="146.802112" guiShape="passenger" />
   <vehicle id="straightE_72" type="vehicleE_72" route="edgeE_edgeW" depart="65" departLane="2" />

   <vType id="vehicleW_73" length="3.992000" accel="2.549000" decel="5.834000" sigma="0.5" minGap="2.515073" maxSpeed="146.802112" guiShape="passenger" />
   <vehicle id="leftW_73" type="vehicleW_73" route="edgeW_edgeN" depart="67" departLane="2" />

   <vType id="vehicleE_74" length="4.396000" accel="2.830000" decel="3.836000" sigma="0.5" minGap="2.515073" maxSpeed="146.802112" guiShape="passenger" />
   <vehicle id="leftE_74" type="vehicleE_74" route="edgeE_edgeS" depart="67" departLane="2" />

   <vType id="vehicleN_75" length="4.097000" accel="2.208000" decel="4.336000" sigma="0.5" minGap="2.515073" maxSpeed="146.802112" guiShape="passenger" />
   <vehicle id="straightN_75" type="vehicleN_75" route="edgeN_edgeS" depart="68" departLane="2" />

   <vType id="vehicleS_76" length="5.565000" accel="2.238000" decel="3.529000" sigma="0.5" minGap="2.515073" maxSpeed="146.802112" guiShape="passenger" />
   <vehicle id="straightS_76" type="vehicleS_76" route="edgeS_edgeN" depart="68" departLane="2" />

   <vType id="vehicleN_77" length="4.688000" accel="2.776000" decel="5.556000" sigma="0.5" minGap="2.515073" maxSpeed="146.802112" guiShape="passenger" />
   <vehicle id="straightN_77" type="vehicleN_77" route="edgeN_edgeS" depart="69" departLane="2" />

   <vType id="vehicleW_78" length="5.057000" accel="2.346000" decel="3.283000" sigma="0.5" minGap="2.515073" maxSpeed="146.802112" guiShape="passenger" />
   <vehicle id="straightW_78" type="vehicleW_78" route="edgeW_edgeE" depart="70" departLane="1" />

   <vType id="vehicleE_79" length="5.108000" accel="2.817000" decel="2.815000" sigma="0.5" minGap="2.515073" maxSpeed="146.802112" guiShape="passenger" />
   <vehicle id="straightE_79" type="vehicleE_79" route="edgeE_edgeW" depart="70" departLane="2" />

   <vType id="vehicleW_80" length="4.437000" accel="3.236000" decel="4.592000" sigma="0.5" minGap="2.515073" maxSpeed="146.802112" guiShape="passenger" />
   <vehicle id="leftW_80" type="vehicleW_80" route="edgeW_edgeN" depart="74" departLane="2" />

   <vType id="vehicleE_81" length="4.666000" accel="3.009000" decel="5.653000" sigma="0.5" minGap="2.515073" maxSpeed="146.802112" guiShape="passenger" />
   <vehicle id="straightE_81" type="vehicleE_81" route="edgeE_edgeW" depart="75" departLane="2" />

   <vType id="vehicleS_82" length="5.082000" accel="3.404000" decel="4.652000" sigma="0.5" minGap="2.515073" maxSpeed="146.802112" guiShape="passenger" />
   <vehicle id="leftS_82" type="vehicleS_82" route="edgeS_edgeW" depart="76" departLane="3" />

   <vType id="vehicleS_83" length="4.723000" accel="3.090000" decel="5.741000" sigma="0.5" minGap="2.515073" maxSpeed="146.802112" guiShape="passenger" />
   <vehicle id="straightS_83" type="vehicleS_83" route="edgeS_edgeN" depart="77" departLane="2" />

   <vType id="vehicleS_84" length="4.620000" accel="2.855000" decel="4.902000" sigma="0.5" minGap="2.515073" maxSpeed="146.802112" guiShape="passenger" />
   <vehicle id="leftS_84" type="vehicleS_84" route="edgeS_edgeW" depart="79" departLane="3" />

   <vType id="vehicleW_85" length="5.226000" accel="3.050000" decel="5.224000" sigma="0.5" minGap="2.515073" maxSpeed="146.802112" guiShape="passenger" />
   <vehicle id="straightW_85" type="vehicleW_85" route="edgeW_edgeE" depart="82" departLane="1" />

   <vType id="vehicleE_86" length="4.402000" accel="3.435000" decel="4.313000" sigma="0.5" minGap="2.515073" maxSpeed="146.802112" guiShape="passenger" />
   <vehicle id="leftE_86" type="vehicleE_86" route="edgeE_edgeS" depart="82" departLane="2" />

   <vType id="vehicleW_87" length="4.865000" accel="2.940000" decel="3.016000" sigma="0.5" minGap="2.515073" maxSpeed="146.802112" guiShape="passenger" />
   <vehicle id="leftW_87" type="vehicleW_87" route="edgeW_edgeN" depart="83" departLane="2" />

   <vType id="vehicleN_88" length="4.772000" accel="3.188000" decel="4.393000" sigma="0.5" minGap="2.515073" maxSpeed="146.802112" guiShape="passenger" />
   <vehicle id="straightN_88" type="vehicleN_88" route="edgeN_edgeS" depart="84" departLane="2" />

   <vType id="vehicleS_89" length="4.950000" accel="3.232000" decel="3.159000" sigma="0.5" minGap="2.515073" maxSpeed="146.802112" guiShape="passenger" />
   <vehicle id="leftS_89" type="vehicleS_89" route="edgeS_edgeW" depart="85" departLane="3" />

   <vType id="vehicleS_90" length="4.503000" accel="2.940000" decel="4.507000" sigma="0.5" minGap="2.515073" maxSpeed="146.802112" guiShape="passenger" />
   <vehicle id="straightS_90" type="vehicleS_90" route="edgeS_edgeN" depart="88" departLane="2" />

   <vType id="vehicleS_91" length="5.401000" accel="2.728000" decel="3.761000" sigma="0.5" minGap="2.515073" maxSpeed="146.802112" guiShape="passenger" />
   <vehicle id="straightS_91" type="vehicleS_91" route="edgeS_edgeN" depart="89" departLane="2" />

   <vType id="vehicleS_92" length="4.934000" accel="3.418000" decel="5.602000" sigma="0.5" minGap="2.515073" maxSpeed="146.802112" guiShape="passenger" />
   <vehicle id="straightS_92" type="vehicleS_92" route="edgeS_edgeN" depart="91" departLane="2" />

   <vType id="vehicleW_93" length="3.923000" accel="2.327000" decel="5.592000" sigma="0.5" minGap="2.515073" maxSpeed="146.802112" guiShape="passenger" />
   <vehicle id="rightW_93" type="vehicleW_93" route="edgeW_edgeS" depart="91" departLane="1" />

   <vType id="vehicleE_94" length="4.362000" accel="3.047000" decel="4.024000" sigma="0.5" minGap="2.515073" maxSpeed="146.802112" guiShape="passenger" />
   <vehicle id="rightE_94" type="vehicleE_94" route="edgeE_edgeN" depart="91" departLane="1" />

   <vType id="vehicleN_95" length="5.006000" accel="3.495000" decel="6.011000" sigma="0.5" minGap="2.515073" maxSpeed="146.802112" guiShape="passenger" />
   <vehicle id="leftN_95" type="vehicleN_95" route="edgeN_edgeE" depart="94" departLane="3" />

   <vType id="vehicleW_96" length="5.430000" accel="2.777000" decel="5.006000" sigma="0.5" minGap="2.515073" maxSpeed="146.802112" guiShape="passenger" />
   <vehicle id="straightW_96" type="vehicleW_96" route="edgeW_edgeE" depart="94" departLane="1" />

   <vType id="vehicleE_97" length="4.412000" accel="2.674000" decel="3.189000" sigma="0.5" minGap="2.515073" maxSpeed="146.802112" guiShape="passenger" />
   <vehicle id="rightE_97" type="vehicleE_97" route="edgeE_edgeN" depart="94" departLane="2" />

   <vType id="vehicleW_98" length="5.427000" accel="3.042000" decel="3.505000" sigma="0.5" minGap="2.515073" maxSpeed="146.802112" guiShape="passenger" />
   <vehicle id="leftW_98" type="vehicleW_98" route="edgeW_edgeN" depart="95" departLane="2" />

   <vType id="vehicleE_99" length="4.704000" accel="3.113000" decel="5.684000" sigma="0.5" minGap="2.515073" maxSpeed="146.802112" guiShape="passenger" />
   <vehicle id="straightE_99" type="vehicleE_99" route="edgeE_edgeW" depart="95" departLane="2" />

   <vType id="vehicleW_100" length="4.504000" accel="2.994000" decel="4.823000" sigma="0.5" minGap="2.515073" maxSpeed="146.802112" guiShape="passenger" />
   <vehicle id="straightW_100" type="vehicleW_100" route="edgeW_edgeE" depart="96" departLane="2" />

   <vType id="vehicleN_101" length="4.527000" accel="2.555000" decel="5.023000" sigma="0.5" minGap="2.515073" maxSpeed="146.802112" guiShape="passenger" />
   <vehicle id="straightN_101" type="vehicleN_101" route="edgeN_edgeS" depart="98" departLane="2" />

   <vType id="vehicleE_102" length="5.102000" accel="3.230000" decel="2.870000" sigma="0.5" minGap="2.515073" maxSpeed="146.802112" guiShape="passenger" />
   <vehicle id="straightE_102" type="vehicleE_102" route="edgeE_edgeW" depart="98" departLane="2" />

   <vType id="vehicleE_103" length="4.281000" accel="2.396000" decel="3.537000" sigma="0.5" minGap="2.515073" maxSpeed="146.802112" guiShape="passenger" />
   <vehicle id="rightE_103" type="vehicleE_103" route="edgeE_edgeN" depart="99" departLane="1" />

   <vType id="vehicleE_104" length="5.210000" accel="2.374000" decel="3.145000" sigma="0.5" minGap="2.515073" maxSpeed="146.802112" guiShape="passenger" />
   <vehicle id="straightE_104" type="vehicleE_104" route="edgeE_edgeW" depart="101" departLane="2" />

   <vType id="vehicleE_105" length="4.743000" accel="3.323000" decel="5.180000" sigma="0.5" minGap="2.515073" maxSpeed="146.802112" guiShape="passenger" />
   <vehicle id="rightE_105" type="vehicleE_105" route="edgeE_edgeN" depart="102" departLane="2" />

   <vType id="vehicleW_106" length="4.293000" accel="3.127000" decel="4.941000" sigma="0.5" minGap="2.515073" maxSpeed="146.802112" guiShape="passenger" />
   <vehicle id="rightW_106" type="vehicleW_106" route="edgeW_edgeS" depart="103" departLane="2" />

   <vType id="vehicleE_107" length="4.696000" accel="3.122000" decel="4.934000" sigma="0.5" minGap="2.515073" maxSpeed="146.802112" guiShape="passenger" />
   <vehicle id="straightE_107" type="vehicleE_107" route="edgeE_edgeW" depart="104" departLane="2" />

   <vType id="vehicleW_108" length="3.940000" accel="3.440000" decel="4.567000" sigma="0.5" minGap="2.515073" maxSpeed="146.802112" guiShape="passenger" />
   <vehicle id="straightW_108" type="vehicleW_108" route="edgeW_edgeE" depart="105" departLane="1" />

   <vType id="vehicleN_109" length="3.961000" accel="3.608000" decel="3.092000" sigma="0.5" minGap="2.515073" maxSpeed="146.802112" guiShape="passenger" />