<routes>
   <personFlow id="pRegN" begin="0" end="100" personsPerHour="149.049881">
        <walk edges="edgeN_O edgeS_I" speed="2.203115"/>
    </personFlow>
   <personFlow id="pRegS" begin="0" end="100" personsPerHour="714.470490">
        <walk edges="edgeS_O edgeN_I" speed="0.984005"/>
    </personFlow>
   <personFlow id="pRegW" begin="0" end="100" personsPerHour="473.663111">
        <walk edges="edgeW_O edgeE_I" speed="2.020384"/>
    </personFlow>
   <personFlow id="pRegE" begin="0" end="100" personsPerHour="1065.146567">
        <walk edges="edgeE_O edgeW_I" speed="0.922830"/>
    </personFlow>
   <personFlow id="pOppN" begin="0" end="100" personsPerHour="93.621350" departPos="800.000000">
        <walk edges="edgeN_I edgeS_O" speed="1.803464"/>
    </personFlow>
   <personFlow id="pOppS" begin="0" end="100" personsPerHour="368.995281" departPos="700.000000">
        <walk edges="edgeS_I edgeN_O" speed="1.576969"/>
    </personFlow>
   <personFlow id="pOppW" begin="0" end="100" personsPerHour="487.214811" departPos="800.000000">
        <walk edges="edgeW_I edgeE_O" speed="1.739770"/>
    </personFlow>
   <personFlow id="pOppE" begin="0" end="100" personsPerHour="732.045864" departPos="800.000000">
        <walk edges="edgeE_I edgeW_O" speed="2.165804"/>
    </personFlow>

    <route id="edgeN_edgeN" edges="edgeN_O edgeN_I" />
    <route id="edgeN_edgeS" edges="edgeN_O edgeS_I" />
    <route id="edgeN_edgeW" edges="edgeN_O edgeW_I" />
    <route id="edgeN_edgeE" edges="edgeN_O edgeE_I" />
    <route id="edgeS_edgeN" edges="edgeS_O edgeN_I" />
    <route id="edgeS_edgeS" edges="edgeS_O edgeS_I" />
    <route id="edgeS_edgeW" edges="edgeS_O edgeW_I" />
    <route id="edgeS_edgeE" edges="edgeS_O edgeE_I" />
    <route id="edgeW_edgeN" edges="edgeW_O edgeN_I" />
    <route id="edgeW_edgeS" edges="edgeW_O edgeS_I" />
    <route id="edgeW_edgeW" edges="edgeW_O edgeW_I" />
    <route id="edgeW_edgeE" edges="edgeW_O edgeE_I" />
    <route id="edgeE_edgeN" edges="edgeE_O edgeN_I" />
    <route id="edgeE_edgeS" edges="edgeE_O edgeS_I" />
    <route id="edgeE_edgeW" edges="edgeE_O edgeW_I" />
    <route id="edgeE_edgeE" edges="edgeE_O edgeE_I" />
    
   <vType id="vehicleS_0" length="4.292000" accel="3.442000" decel="4.999000" sigma="0.5" minGap="2.341776" maxSpeed="122.678698" guiShape="passenger" />
   <vehicle id="straightS_0" type="vehicleS_0" route="edgeS_edgeN" depart="0" departLane="4" />

   <vType id="vehicleW_1" length="3.946000" accel="2.775000" decel="4.402000" sigma="0.5" minGap="2.341776" maxSpeed="122.678698" guiShape="passenger" />
   <vehicle id="straightW_1" type="vehicleW_1" route="edgeW_edgeE" depart="0" departLane="1" />

   <vType id="vehicleE_2" length="4.390000" accel="2.771000" decel="5.302000" sigma="0.5" minGap="2.341776" maxSpeed="122.678698" guiShape="passenger" />
   <vehicle id="straightE_2" type="vehicleE_2" route="edgeE_edgeW" depart="2" departLane="1" />

   <vType id="vehicleN_3" length="5.407000" accel="3.271000" decel="5.454000" sigma="0.5" minGap="2.341776" maxSpeed="122.678698" guiShape="passenger" />
   <vehicle id="leftN_3" type="vehicleN_3" route="edgeN_edgeE" depart="3" departLane="5" />

   <vType id="vehicleE_4" length="5.375000" accel="3.290000" decel="5.644000" sigma="0.5" minGap="2.341776" maxSpeed="122.678698" guiShape="passenger" />
   <vehicle id="straightE_4" type="vehicleE_4" route="edgeE_edgeW" depart="3" departLane="3" />

   <vType id="vehicleN_5" length="5.075000" accel="3.489000" decel="6.075000" sigma="0.5" minGap="2.341776" maxSpeed="122.678698" guiShape="passenger" />
   <vehicle id="leftN_5" type="vehicleN_5" route="edgeN_edgeE" depart="4" departLane="5" />

   <vType id="vehicleW_6" length="5.383000" accel="2.703000" decel="3.878000" sigma="0.5" minGap="2.341776" maxSpeed="122.678698" guiShape="passenger" />
   <vehicle id="straightW_6" type="vehicleW_6" route="edgeW_edgeE" depart="4" departLane="3" />

   <vType id="vehicleE_7" length="5.051000" accel="3.278000" decel="3.236000" sigma="0.5" minGap="2.341776" maxSpeed="122.678698" guiShape="passenger" />
   <vehicle id="uturnE_7" type="vehicleE_7" route="edgeE_edgeE" depart="4" departLane="4" />

   <vType id="vehicleS_8" length="5.661000" accel="3.317000" decel="4.582000" sigma="0.5" minGap="2.341776" maxSpeed="122.678698" guiShape="passenger" />
   <vehicle id="straightS_8" type="vehicleS_8" route="edgeS_edgeN" depart="5" departLane="4" />

   <vType id="vehicleW_9" length="3.993000" accel="3.551000" decel="5.447000" sigma="0.5" minGap="2.341776" maxSpeed="122.678698" guiShape="passenger" />
   <vehicle id="straightW_9" type="vehicleW_9" route="edgeW_edgeE" depart="5" departLane="2" />

   <vType id="vehicleE_10" length="5.578000" accel="3.622000" decel="3.737000" sigma="0.5" minGap="2.341776" maxSpeed="122.678698" guiShape="passenger" />
   <vehicle id="straightE_10" type="vehicleE_10" route="edgeE_edgeW" depart="5" departLane="3" />

   <vType id="vehicleE_11" length="5.224000" accel="3.187000" decel="5.244000" sigma="0.5" minGap="2.341776" maxSpeed="122.678698" guiShape="passenger" />
   <vehicle id="straightE_11" type="vehicleE_11" route="edgeE_edgeW" depart="6" departLane="2" />

   <vType id="vehicleW_12" length="4.803000" accel="2.611000" decel="2.804000" sigma="0.5" minGap="2.341776" maxSpeed="122.678698" guiShape="passenger" />
   <vehicle id="uturnW_12" type="vehicleW_12" route="edgeW_edgeW" depart="7" departLane="4" />

   <vType id="vehicleE_13" length="5.308000" accel="3.037000" decel="2.861000" sigma="0.5" minGap="2.341776" maxSpeed="122.678698" guiShape="passenger" />
   <vehicle id="straightE_13" type="vehicleE_13" route="edgeE_edgeW" depart="7" departLane="2" />

   <vType id="vehicleW_14" length="5.577000" accel="3.369000" decel="3.039000" sigma="0.5" minGap="2.341776" maxSpeed="122.678698" guiShape="passenger" />
   <vehicle id="straightW_14" type="vehicleW_14" route="edgeW_edgeE" depart="8" departLane="3" />

   <vType id="vehicleS_15" length="4.176000" accel="2.498000" decel="5.157000" sigma="0.5" minGap="2.341776" maxSpeed="122.678698" guiShape="passenger" />
   <vehicle id="straightS_15" type="vehicleS_15" route="edgeS_edgeN" depart="9" departLane="4" />

   <vType id="vehicleW_16" length="4.212000" accel="3.668000" decel="5.675000" sigma="0.5" minGap="2.341776" maxSpeed="122.678698" guiShape="passenger" />
   <vehicle id="straightW_16" type="vehicleW_16" route="edgeW_edgeE" depart="9" departLane="2" />

   <vType id="vehicleS_17" length="4.182000" accel="3.721000" decel="5.856000" sigma="0.5" minGap="2.341776" maxSpeed="122.678698" guiShape="passenger" />
   <vehicle id="straightS_17" type="vehicleS_17" route="edgeS_edgeN" depart="10" departLane="2" />

   <vType id="vehicleN_18" length="5.654000" accel="3.532000" decel="3.475000" sigma="0.5" minGap="2.341776" maxSpeed="122.678698" guiShape="passenger" />
   <vehicle id="straightN_18" type="vehicleN_18" route="edgeN_edgeS" depart="11" departLane="2" />

   <vType id="vehicleE_19" length="4.017000" accel="3.473000" decel="5.310000" sigma="0.5" minGap="2.341776" maxSpeed="122.678698" guiShape="passenger" />
   <vehicle id="straightE_19" type="vehicleE_19" route="edgeE_edgeW" depart="11" departLane="1" />

   <vType id="vehicleW_20" length="4.977000" accel="3.735000" decel="5.879000" sigma="0.5" minGap="2.341776" maxSpeed="122.678698" guiShape="passenger" />
   <vehicle id="straightW_20" type="vehicleW_20" route="edgeW_edgeE" depart="12" departLane="3" />

   <vType id="vehicleE_21" length="4.700000" accel="2.813000" decel="2.863000" sigma="0.5" minGap="2.341776" maxSpeed="122.678698" guiShape="passenger" />
   <vehicle id="rightE_21" type="vehicleE_21" route="edgeE_edgeN" depart="13" departLane="1" />

   <vType id="vehicleS_22" length="4.020000" accel="3.306000" decel="3.438000" sigma="0.5" minGap="2.341776" maxSpeed="122.678698" guiShape="passenger" />
   <vehicle id="leftS_22" type="vehicleS_22" route="edgeS_edgeW" depart="14" departLane="5" />

   <vType id="vehicleE_23" length="5.088000" accel="2.769000" decel="3.101000" sigma="0.5" minGap="2.341776" maxSpeed="122.678698" guiShape="passenger" />
   <vehicle id="straightE_23" type="vehicleE_23" route="edgeE_edgeW" depart="14" departLane="3" />

   <vType id="vehicleS_24" length="4.620000" accel="2.615000" decel="4.937000" sigma="0.5" minGap="2.341776" maxSpeed="122.678698" guiShape="passenger" />
   <vehicle id="straightS_24" type="vehicleS_24" route="edgeS_edgeN" depart="15" departLane="3" />

   <vType id="vehicleE_25" length="4.499000" accel="3.603000" decel="3.507000" sigma="0.5" minGap="2.341776" maxSpeed="122.678698" guiShape="passenger" />
   <vehicle id="straightE_25" type="vehicleE_25" route="edgeE_edgeW" depart="16" departLane="1" />

   <vType id="vehicleS_26" length="4.720000" accel="3.619000" decel="2.903000" sigma="0.5" minGap="2.341776" maxSpeed="122.678698" guiShape="passenger" />
   <vehicle id="leftS_26" type="vehicleS_26" route="edgeS_edgeW" depart="17" departLane="5" />

   <vType id="vehicleW_27" length="5.387000" accel="3.741000" decel="5.870000" sigma="0.5" minGap="2.341776" maxSpeed="122.678698" guiShape="passenger" />
   <vehicle id="uturnW_27" type="vehicleW_27" route="edgeW_edgeW" depart="17" departLane="4" />

   <vType id="vehicleN_28" length="4.275000" accel="3.010000" decel="2.844000" sigma="0.5" minGap="2.341776" maxSpeed="122.678698" guiShape="passenger" />
   <vehicle id="straightN_28" type="vehicleN_28" route="edgeN_edgeS" depart="18" departLane="3" />

   <vType id="vehicleS_29" length="5.548000" accel="3.504000" decel="3.634000" sigma="0.5" minGap="2.341776" maxSpeed="122.678698" guiShape="passenger" />
   <vehicle id="straightS_29" type="vehicleS_29" route="edgeS_edgeN" depart="18" departLane="4" />

   <vType id="vehicleW_30" length="5.624000" accel="3.239000" decel="4.530000" sigma="0.5" minGap="2.341776" maxSpeed="122.678698" guiShape="passenger" />
   <vehicle id="straightW_30" type="vehicleW_30" route="edgeW_edgeE" depart="19" departLane="3" />

   <vType id="vehicleE_31" length="4.745000" accel="3.677000" decel="4.492000" sigma="0.5" minGap="2.341776" maxSpeed="122.678698" guiShape="passenger" />
   <vehicle id="leftE_31" type="vehicleE_31" route="edgeE_edgeS" depart="19" departLane="3" />

   <vType id="vehicleS_32" length="4.956000" accel="3.363000" decel="3.460000" sigma="0.5" minGap="2.341776" maxSpeed="122.678698" guiShape="passenger" />
   <vehicle id="leftS_32" type="vehicleS_32" route="edgeS_edgeW" depart="20" departLane="5" />

   <vType id="vehicleS_33" length="5.068000" accel="3.221000" decel="3.743000" sigma="0.5" minGap="2.341776" maxSpeed="122.678698" guiShape="passenger" />
   <vehicle id="leftS_33" type="vehicleS_33" route="edgeS_edgeW" depart="21" departLane="5" />

   <vType id="vehicleW_34" length="4.320000" accel="3.003000" decel="4.982000" sigma="0.5" minGap="2.341776" maxSpeed="122.678698" guiShape="passenger" />
   <vehicle id="straightW_34" type="vehicleW_34" route="edgeW_edgeE" depart="21" departLane="2" />

   <vType id="vehicleW_35" length="4.899000" accel="2.622000" decel="4.514000" sigma="0.5" minGap="2.341776" maxSpeed="122.678698" guiShape="passenger" />
   <vehicle id="straightW_35" type="vehicleW_35" route="edgeW_edgeE" depart="22" departLane="3" />

   <vType id="vehicleE_36" length="5.467000" accel="3.625000" decel="3.928000" sigma="0.5" minGap="2.341776" maxSpeed="122.678698" guiShape="passenger" />
   <vehicle id="uturnE_36" type="vehicleE_36" route="edgeE_edgeE" depart="22" departLane="4" />

   <vType id="vehicleN_37" length="5.150000" accel="3.281000" decel="6.082000" sigma="0.5" minGap="2.341776" maxSpeed="122.678698" guiShape="passenger" />
   <vehicle id="rightN_37" type="vehicleN_37" route="edgeN_edgeW" depart="23" departLane="1" />

   <vType id="vehicleN_38" length="4.366000" accel="3.639000" decel="5.228000" sigma="0.5" minGap="2.341776" maxSpeed="122.678698" guiShape="passenger" />
   <vehicle id="rightN_38" type="vehicleN_38" route="edgeN_edgeW" depart="24" departLane="1" />

   <vType id="vehicleS_39" length="5.175000" accel="2.756000" decel="4.851000" sigma="0.5" minGap="2.341776" maxSpeed="122.678698" guiShape="passenger" />
   <vehicle id="straightS_39" type="vehicleS_39" route="edgeS_edgeN" depart="24" departLane="3" />

   <vType id="vehicleE_40" length="3.984000" accel="3.310000" decel="5.531000" sigma="0.5" minGap="2.341776" maxSpeed="122.678698" guiShape="passenger" />
   <vehicle id="rightE_40" type="vehicleE_40" route="edgeE_edgeN" depart="24" departLane="1" />

   <vType id="vehicleN_41" length="5.031000" accel="2.831000" decel="5.224000" sigma="0.5" minGap="2.341776" maxSpeed="122.678698" guiShape="passenger" />
   <vehicle id="rightN_41" type="vehicleN_41" route="edgeN_edgeW" depart="25" departLane="2" />

   <vType id="vehicleW_42" length="5.128000" accel="2.686000" decel="2.765000" sigma="0.5" minGap="2.341776" maxSpeed="122.678698" guiShape="passenger" />
   <vehicle id="uturnW_42" type="vehicleW_42" route="edgeW_edgeW" depart="25" departLane="4" />

   <vType id="vehicleE_43" length="4.661000" accel="2.548000" decel="3.911000" sigma="0.5" minGap="2.341776" maxSpeed="122.678698" guiShape="passenger" />
   <vehicle id="straightE_43" type="vehicleE_43" route="edgeE_edgeW" depart="25" departLane="1" />

   <vType id="vehicleS_44" length="4.077000" accel="3.498000" decel="5.723000" sigma="0.5" minGap="2.341776" maxSpeed="122.678698" guiShape="passenger" />
   <vehicle id="leftS_44" type="vehicleS_44" route="edgeS_edgeW" depart="26" departLane="5" />

   <vType id="vehicleS_45" length="5.322000" accel="2.722000" decel="4.077000" sigma="0.5" minGap="2.341776" maxSpeed="122.678698" guiShape="passenger" />
   <vehicle id="leftS_45" type="vehicleS_45" route="edgeS_edgeW" depart="27" departLane="5" />

   <vType id="vehicleE_46" length="5.326000" accel="3.606000" decel="5.467000" sigma="0.5" minGap="2.341776" maxSpeed="122.678698" guiShape="passenger" />
   <vehicle id="uturnE_46" type="vehicleE_46" route="edgeE_edgeE" depart="27" departLane="4" />

   <vType id="vehicleW_47" length="5.427000" accel="2.780000" decel="5.487000" sigma="0.5" minGap="2.341776" maxSpeed="122.678698" guiShape="passenger" />
   <vehicle id="rightW_47" type="vehicleW_47" route="edgeW_edgeS" depart="28" departLane="1" />

   <vType id="vehicleE_48" length="5.450000" accel="2.781000" decel="4.941000" sigma="0.5" minGap="2.341776" maxSpeed="122.678698" guiShape="passenger" />
   <vehicle id="straightE_48" type="vehicleE_48" route="edgeE_edgeW" depart="28" departLane="2" />

   <vType id="vehicleE_49" length="4.607000" accel="3.757000" decel="4.509000" sigma="0.5" minGap="2.341776" maxSpeed="122.678698" guiShape="passenger" />
   <vehicle id="straightE_49" type="vehicleE_49" route="edgeE_edgeW" depart="29" departLane="1" />

   <vType id="vehicleN_50" length="4.212000" accel="3.733000" decel="3.565000" sigma="0.5" minGap="2.341776" maxSpeed="122.678698" guiShape="passenger" />
   <vehicle id="uturnN_50" type="vehicleN_50" route="edgeN_edgeN" depart="30" departLane="5" />

   <vType id="vehicleS_51" length="5.195000" accel="2.897000" decel="4.753000" sigma="0.5" minGap="2.341776" maxSpeed="122.678698" guiShape="passenger" />
   <vehicle id="straightS_51" type="vehicleS_51" route="edgeS_edgeN" depart="30" departLane="4" />

   <vType id="vehicleW_52" length="4.233000" accel="2.551000" decel="4.160000" sigma="0.5" minGap="2.341776" maxSpeed="122.678698" guiShape="passenger" />
   <vehicle id="rightW_52" type="vehicleW_52" route="edgeW_edgeS" depart="30" departLane="1" />

   <vType id="vehicleE_53" length="5.080000" accel="2.919000" decel="3.734000" sigma="0.5" minGap="2.341776" maxSpeed="122.678698" guiShape="passenger" />
   <vehicle id="straightE_53" type="vehicleE_53" route="edgeE_edgeW" depart="30" departLane="1" />

   <vType id="vehicleS_54" length="4.623000" accel="3.012000" decel="3.671000" sigma="0.5" minGap="2.341776" maxSpeed="122.678698" guiShape="passenger" />
   <vehicle id="straightS_54" type="vehicleS_54" route="edgeS_edgeN" depart="31" departLane="2" />

   <vType id="vehicleW_55" length="4.570000" accel="3.457000" decel="3.246000" sigma="0.5" minGap="2.341776" maxSpeed="122.678698" guiShape="passenger" />
   <vehicle id="straightW_55" type="vehicleW_55" route="edgeW_edgeE" depart="31" departLane="3" />

   <vType id="vehicleE_56" length="3.894000" accel="2.863000" decel="4.139000" sigma="0.5" minGap="2.341776" maxSpeed="122.678698" guiShape="passenger" />
   <vehicle id="straightE_56" type="vehicleE_56" route="edgeE_edgeW" depart="31" departLane="3" />

   <vType id="vehicleS_57" length="5.100000" accel="3.152000" decel="5.407000" sigma="0.5" minGap="2.341776" maxSpeed="122.678698" guiShape="passenger" />
   <vehicle id="straightS_57" type="vehicleS_57" route="edgeS_edgeN" depart="32" departLane="4" />

   <vType id="vehicleW_58" length="4.814000" accel="3.308000" decel="3.808000" sigma="0.5" minGap="2.341776" maxSpeed="122.678698" guiShape="passenger" />
   <vehicle id="straightW_58" type="vehicleW_58" route="edgeW_edgeE" depart="32" departLane="1" />

   <vType id="vehicleN_59" length="3.937000" accel="2.809000" decel="4.296000" sigma="0.5" minGap="2.341776" maxSpeed="122.678698" guiShape="passenger" />
   <vehicle id="leftN_59" type="vehicleN_59" route="edgeN_edgeE" depart="33" departLane="5" />

   <vType id="vehicleE_60" length="5.488000" accel="3.601000" decel="5.727000" sigma="0.5" minGap="2.341776" maxSpeed="122.678698" guiShape="passenger" />
   <vehicle id="straightE_60" type="vehicleE_60" route="edgeE_edgeW" depart="34" departLane="2" />

   <vType id="vehicleN_61" length="5.136000" accel="3.092000" decel="4.583000" sigma="0.5" minGap="2.341776" maxSpeed="122.678698" guiShape="passenger" />
   <vehicle id="rightN_61" type="vehicleN_61" route="edgeN_edgeW" depart="35" departLane="1" />

   <vType id="vehicleS_62" length="5.261000" accel="3.165000" decel="4.825000" sigma="0.5" minGap="2.341776" maxSpeed="122.678698" guiShape="passenger" />
   <vehicle id="straightS_62" type="vehicleS_62" route="edgeS_edgeN" depart="39" departLane="3" />

   <vType id="vehicleN_63" length="5.489000" accel="2.597000" decel="3.166000" sigma="0.5" minGap="2.341776" maxSpeed="122.678698" guiShape="passenger" />
   <vehicle id="straightN_63" type="vehicleN_63" route="edgeN_edgeS" depart="40" departLane="3" />

   <vType id="vehicleE_64" length="4.863000" accel="3.029000" decel="3.361000" sigma="0.5" minGap="2.341776" maxSpeed="122.678698" guiShape="passenger" />
   <vehicle id="straightE_64" type="vehicleE_64" route="edgeE_edgeW" depart="40" departLane="2" />

   <vType id="vehicleE_65" length="4.922000" accel="3.108000" decel="5.927000" sigma="0.5" minGap="2.341776" maxSpeed="122.678698" guiShape="passenger" />
   <vehicle id="rightE_65" type="vehicleE_65" route="edgeE_edgeN" depart="41" departLane="1" />

   <vType id="vehicleE_66" length="4.672000" accel="2.531000" decel="3.812000" sigma="0.5" minGap="2.341776" maxSpeed="122.678698" guiShape="passenger" />
   <vehicle id="straightE_66" type="vehicleE_66" route="edgeE_edgeW" depart="43" departLane="3" />

   <vType id="vehicleS_67" length="5.442000" accel="2.728000" decel="3.547000" sigma="0.5" minGap="2.341776" maxSpeed="122.678698" guiShape="passenger" />
   <vehicle id="straightS_67" type="vehicleS_67" route="edgeS_edgeN" depart="46" departLane="3" />

   <vType id="vehicleW_68" length="5.253000" accel="2.982000" decel="5.262000" sigma="0.5" minGap="2.341776" maxSpeed="122.678698" guiShape="passenger" />
   <vehicle id="straightW_68" type="vehicleW_68" route="edgeW_edgeE" depart="46" departLane="2" />

   <vType id="vehicleE_69" length="3.928000" accel="3.188000" decel="6.126000" sigma="0.5" minGap="2.341776" maxSpeed="122.678698" guiShape="passenger" />
   <vehicle id="straightE_69" type="vehicleE_69" route="edgeE_edgeW" depart="46" departLane="2" />

   <vType id="vehicleN_70" length="5.603000" accel="2.546000" decel="2.748000" sigma="0.5" minGap="2.341776" maxSpeed="122.678698" guiShape="passenger" />
   <vehicle id="leftN_70" type="vehicleN_70" route="edgeN_edgeE" depart="47" departLane="5" />

   <vType id="vehicleS_71" length="4.165000" accel="2.656000" decel="4.974000" sigma="0.5" minGap="2.341776" maxSpeed="122.678698" guiShape="passenger" />
   <vehicle id="leftS_71" type="vehicleS_71" route="edgeS_edgeW" depart="47" departLane="5" />

   <vType id="vehicleE_72" length="4.976000" accel="3.734000" decel="5.144000" sigma="0.5" minGap="2.341776" maxSpeed="122.678698" guiShape="passenger" />
   <vehicle id="straightE_72" type="vehicleE_72" route="edgeE_edgeW" depart="47" departLane="1" />

   <vType id="vehicleS_73" length="4.450000" accel="3.366000" decel="5.981000" sigma="0.5" minGap="2.341776" maxSpeed="122.678698" guiShape="passenger" />
   <vehicle id="leftS_73" type="vehicleS_73" route="edgeS_edgeW" depart="48" departLane="5" />

   <vType id="vehicleE_74" length="5.377000" accel="2.806000" decel="5.071000" sigma="0.5" minGap="2.341776" maxSpeed="122.678698" guiShape="passenger" />
   <vehicle id="straightE_74" type="vehicleE_74" route="edgeE_edgeW" depart="48" departLane="2" />

   <vType id="vehicleW_75" length="5.291000" accel="2.941000" decel="4.133000" sigma="0.5" minGap="2.341776" maxSpeed="122.678698" guiShape="passenger" />
   <vehicle id="uturnW_75" type="vehicleW_75" route="edgeW_edgeW" depart="49" departLane="4" />

   <vType id="vehicleE_76" length="4.503000" accel="3.587000" decel="5.507000" sigma="0.5" minGap="2.341776" maxSpeed="122.678698" guiShape="passenger" />
   <vehicle id="straightE_76" type="vehicleE_76" route="edgeE_edgeW" depart="49" departLane="1" />

   <vType id="vehicleS_77" length="4.714000" accel="2.691000" decel="3.254000" sigma="0.5" minGap="2.341776" maxSpeed="122.678698" guiShape="passenger" />
   <vehicle id="rightS_77" type="vehicleS_77" route="edgeS_edgeE" depart="50" departLane="2" />

   <vType id="vehicleS_78" length="4.391000" accel="3.074000" decel="5.256000" sigma="0.5" minGap="2.341776" maxSpeed="122.678698" guiShape="passenger" />
   <vehicle id="rightS_78" type="vehicleS_78" route="edgeS_edgeE" depart="52" departLane="2" />

   <vType id="vehicleW_79" length="4.474000" accel="3.121000" decel="3.877000" sigma="0.5" minGap="2.341776" maxSpeed="122.678698" guiShape="passenger" />
   <vehicle id="straightW_79" type="vehicleW_79" route="edgeW_edgeE" depart="52" departLane="2" />

   <vType id="vehicleE_80" length="5.146000" accel="2.849000" decel="2.675000" sigma="0.5" minGap="2.341776" maxSpeed="122.678698" guiShape="passenger" />
   <vehicle id="rightE_80" type="vehicleE_80" route="edgeE_edgeN" depart="52" departLane="1" />

   <vType id="vehicleN_81" length="4.766000" accel="3.470000" decel="5.048000" sigma="0.5" minGap="2.341776" maxSpeed="122.678698" guiShape="passenger" />
   <vehicle id="straightN_81" type="vehicleN_81" route="edgeN_edgeS" depart="53" departLane="4" />

   <vType id="vehicleE_82" length="4.616000" accel="2.807000" decel="4.955000" sigma="0.5" minGap="2.341776" maxSpeed="122.678698" guiShape="passenger" />
   <vehicle id="straightE_82" type="vehicleE_82" route="edgeE_edgeW" depart="53" departLane="2" />

   <vType id="vehicleW_83" length="4.109000" accel="2.742000" decel="3.057000" sigma="0.5" minGap="2.341776" maxSpeed="122.678698" guiShape="passenger" />
   <vehicle id="straightW_83" type="vehicleW_83" route="edgeW_edgeE" depart="55" departLane="3" />

   <vType id="vehicleS_84" length="4.387000" accel="3.253000" decel="5.290000" sigma="0.5" minGap="2.341776" maxSpeed="122.678698" guiShape="passenger" />
   <vehicle id="rightS_84" type="vehicleS_84" route="edgeS_edgeE" depart="56" departLane="2" />

   <vType id="vehicleS_85" length="5.158000" accel="2.657000" decel="2.798000" sigma="0.5" minGap="2.341776" maxSpeed="122.678698" guiShape="passenger" />
   <vehicle id="straightS_85" type="vehicleS_85" route="edgeS_edgeN" depart="57" departLane="2" />

   <vType id="vehicleN_86" length="4.770000" accel="3.617000" decel="4.641000" sigma="0.5" minGap="2.341776" maxSpeed="122.678698" guiShape="passenger" />
   <vehicle id="rightN_86" type="vehicleN_86" route="edgeN_edgeW" depart="58" departLane="2" />

   <vType id="vehicleW_87" length="4.344000" accel="3.603000" decel="3.037000" sigma="0.5" minGap="2.341776" maxSpeed="122.678698" guiShape="passenger" />
   <vehicle id="uturnW_87" type="vehicleW_87" route="edgeW_edgeW" depart="58" departLane="4" />

   <vType id="vehicleE_88" length="4.924000" accel="3.377000" decel="3.169000" sigma="0.5" minGap="2.341776" maxSpeed="122.678698" guiShape="passenger" />
   <vehicle id="straightE_88" type="vehicleE_88" route="edgeE_edgeW" depart="58" departLane="3" />

   <vType id="vehicleS_89" length="4.890000" accel="3.029000" decel="4.718000" sigma="0.5" minGap="2.341776" maxSpeed="122.678698" guiShape="passenger" />
   <vehicle id="leftS_89" type="vehicleS_89" route="edgeS_edgeW" depart="59" departLane="5" />

   <vType id="vehicleE_90" length="4.424000" accel="3.251000" decel="4.135000" sigma="0.5" minGap="2.341776" maxSpeed="122.678698" guiShape="passenger" />
   <vehicle id="rightE_90" type="vehicleE_90" route="edgeE_edgeN" depart="59" departLane="1" />

   <vType id="vehicleE_91" length="5.073000" accel="2.696000" decel="3.246000" sigma="0.5" minGap="2.341776" maxSpeed="122.678698" guiShape="passenger" />
   <vehicle id="straightE_91" type="vehicleE_91" route="edgeE_edgeW" depart="60" departLane="1" />

   <vType id="vehicleN_92" length="5.125000" accel="3.099000" decel="2.753000" sigma="0.5" minGap="2.341776" maxSpeed="122.678698" guiShape="passenger" />
   <vehicle id="straightN_92" type="vehicleN_92" route="edgeN_edgeS" depart="61" departLane="3" />

   <vType id="vehicleE_93" length="4.443000" accel="3.458000" decel="4.624000" sigma="0.5" minGap="2.341776" maxSpeed="122.678698" guiShape="passenger" />
   <vehicle id="straightE_93" type="vehicleE_93" route="edgeE_edgeW" depart="64" departLane="2" />

   <vType id="vehicleW_94" length="4.379000" accel="3.189000" decel="4.166000" sigma="0.5" minGap="2.341776" maxSpeed="122.678698" guiShape="passenger" />
   <vehicle id="straightW_94" type="vehicleW_94" route="edgeW_edgeE" depart="65" departLane="3" />

   <vType id="vehicleE_95" length="4.469000" accel="2.816000" decel="2.958000" sigma="0.5" minGap="2.341776" maxSpeed="122.678698" guiShape="passenger" />
   <vehicle id="straightE_95" type="vehicleE_95" route="edgeE_edgeW" depart="65" departLane="3" />

   <vType id="vehicleS_96" length="5.244000" accel="3.099000" decel="4.911000" sigma="0.5" minGap="2.341776" maxSpeed="122.678698" guiShape="passenger" />
   <vehicle id="leftS_96" type="vehicleS_96" route="edgeS_edgeW" depart="67" departLane="5" />

   <vType id="vehicleW_97" length="5.027000" accel="3.127000" decel="2.958000" sigma="0.5" minGap="2.341776" maxSpeed="122.678698" guiShape="passenger" />
   <vehicle id="straightW_97" type="vehicleW_97" route="edgeW_edgeE" depart="67" departLane="2" />

   <vType id="vehicleE_98" length="4.080000" accel="2.701000" decel="4.075000" sigma="0.5" minGap="2.341776" maxSpeed="122.678698" guiShape="passenger" />
   <vehicle id="straightE_98" type="vehicleE_98" route="edgeE_edgeW" depart="67" departLane="2" />

   <vType id="vehicleS_99" length="5.626000" accel="3.014000" decel="4.434000" sigma="0.5" minGap="2.341776" maxSpeed="122.678698" guiShape="passenger" />
   <vehicle id="straightS_99" type="vehicleS_99" route="edgeS_edgeN" depart="69" departLane="2" />

   <vType id="vehicleS_100" length="5.245000" accel="3.299000" decel="5.290000" sigma="0.5" minGap="2.341776" maxSpeed="122.678698" guiShape="passenger" />
   <vehicle id="straightS_100" type="vehicleS_100" route="edgeS_edgeN" depart="70" departLane="2" />

   <vType id="vehicleW_101" length="4.408000" accel="3.627000" decel="4.330000" sigma="0.5" minGap="2.341776" maxSpeed="122.678698" guiShape="passenger" />
   <vehicle id="straightW_101" type="vehicleW_101" route="edgeW_edgeE" depart="70" departLane="1" />

   <vType id="vehicleS_102" length="4.877000" accel="3.205000" decel="2.965000" sigma="0.5" minGap="2.341776" maxSpeed="122.678698" guiShape="passenger" />
   <vehicle id="leftS_102" type="vehicleS_102" route="edgeS_edgeW" depart="71" departLane="5" />

   <vType id="vehicleE_103" length="4.783000" accel="3.416000" decel="4.414000" sigma="0.5" minGap="2.341776" maxSpeed="122.678698" guiShape="passenger" />
   <vehicle id="straightE_103" type="vehicleE_103" route="edgeE_edgeW" depart="71" departLane="2" />

   <vType id="vehicleN_104" length="4.964000" accel="3.454000" decel="3.116000" sigma="0.5" minGap="2.341776" maxSpeed="122.678698" guiShape="passenger" />
   <vehicle id="leftN_104" type="vehicleN_104" route="edgeN_edgeE" depart="73" departLane="5" />

   <vType id="vehicleS_105" length="4.634000" accel="3.696000" decel="4.410000" sigma="0.5" minGap="2.341776" maxSpeed="122.678698" guiShape="passenger" />
   <vehicle id="rightS_105" type="vehicleS_105" route="edgeS_edgeE" depart="73" departLane="1" />

   <vType id="vehicleW_106" length="4.942000" accel="3.779000" decel="4.347000" sigma="0.5" minGap="2.341776" maxSpeed="122.678698" guiShape="passenger" />
   <vehicle id="straightW_106" type="vehicleW_106" route="edgeW_edgeE" depart="73" departLane="1" />

   <vType id="vehicleS_107" length="4.567000" accel="3.694000" decel="5.672000" sigma="0.5" minGap="2.341776" maxSpeed="122.678698" guiShape="passenger" />
   <vehicle id="rightS_107" type="vehicleS_107" route="edgeS_edgeE" depart="74" departLane="1" />

   <vType id="vehicleE_108" length="3.971000" accel="3.452000" decel="5.099000" sigma="0.5" minGap="2.341776" maxSpeed="122.678698" guiShape="passenger" />
   <vehicle id="straightE_108" type="vehicleE_108" route="edgeE_edgeW" depart="74" departLane="2" />

   <vType id="vehicleS_109" length="4.948000" accel="3.613000" decel="5.688000" sigma="0.5" minGap="2.341776" maxSpeed="122.678698" guiShape="passenger" />