<?xml version="1.0" encoding="UTF-8"?>

<!-- generated on 2021-11-02 21:39:28 by Eclipse SUMO netconvert Version 1.10.0
<configuration xmlns:xsi="http://www.w3.org/2001/XMLSchema-instance" xsi:noNamespaceSchemaLocation="http://sumo.dlr.de/xsd/netconvertConfiguration.xsd">

    <input>
        <node-files value="data/cross.nod.xml"/>
        <edge-files value="data/cross.edg.xml"/>
        <connection-files value="data/cross.con.xml"/>
    </input>

    <output>
        <output-file value="data/cross.net.xml"/>
    </output>

    <junctions>
        <no-turnarounds.except-turnlane value="true"/>
    </junctions>

    <report>
        <aggregate-warnings value="5"/>
    </report>

</configuration>
-->

<net version="1.9" junctionCornerDetail="5" limitTurnSpeed="5.50" xmlns:xsi="http://www.w3.org/2001/XMLSchema-instance" xsi:noNamespaceSchemaLocation="http://sumo.dlr.de/xsd/net_file.xsd">

    <location netOffset="800.00,900.00" convBoundary="0.00,0.00,1500.00,1400.00" origBoundary="-800.00,-900.00,700.00,500.00" projParameter="!"/>

    <edge id=":juncE_0" function="internal">
        <lane id=":juncE_0_0" index="0" disallow="pedestrian" speed="3.65" length="4.67" shape="1500.00,898.40 1501.20,899.20 1501.60,900.00 1501.20,900.80 1500.00,901.60"/>
    </edge>
    <edge id=":juncE_w0" function="walkingarea">
        <lane id=":juncE_w0_0" index="0" allow="pedestrian" speed="1.00" length="28.80" width="3.20" shape="1500.00,912.80 1500.00,916.00 1500.00,884.00 1500.00,887.20"/>
    </edge>
    <edge id=":juncMain_0" function="internal">
        <lane id=":juncMain_0_0" index="0" disallow="pedestrian" speed="6.86" length="5.34" shape="788.80,917.50 788.41,914.74 787.22,912.78 787.00,912.64"/>
        <lane id=":juncMain_0_1" index="1" disallow="pedestrian" speed="7.64" length="8.30" shape="792.00,917.50 791.41,914.74 789.62,912.78 787.00,911.73"/>
    </edge>
    <edge id=":juncMain_2" function="internal">
        <lane id=":juncMain_2_0" index="0" disallow="pedestrian" speed="20.66" length="35.00" shape="792.00,917.50 792.00,882.50"/>
        <lane id=":juncMain_2_1" index="1" disallow="pedestrian" speed="20.66" length="35.00" shape="795.20,917.50 795.20,882.50"/>
    </edge>
    <edge id=":juncMain_4" function="internal">
        <lane id=":juncMain_4_0" index="0" disallow="pedestrian" speed="12.03" length="17.66" shape="798.40,917.50 799.59,907.74 803.17,900.78"/>
        <lane id=":juncMain_4_1" index="1" disallow="pedestrian" speed="11.57" length="15.40" shape="798.40,917.50 799.59,909.14 803.17,903.18"/>
    </edge>
    <edge id=":juncMain_6" function="internal">
        <lane id=":juncMain_6_0" index="0" disallow="pedestrian" speed="3.65" length="2.34" shape="798.40,917.50 799.20,916.30 800.00,915.90"/>
    </edge>
    <edge id=":juncMain_28" function="internal">
        <lane id=":juncMain_28_0" index="0" disallow="pedestrian" speed="6.86" length="4.82" shape="787.00,912.64 785.26,911.59 782.50,911.20"/>
    </edge>
    <edge id=":juncMain_29" function="internal">
        <lane id=":juncMain_29_0" index="0" disallow="pedestrian" speed="7.64" length="4.54" shape="787.00,911.73 786.66,911.59 782.50,911.20"/>
    </edge>
    <edge id=":juncMain_30" function="internal">
        <lane id=":juncMain_30_0" index="0" disallow="pedestrian" speed="12.03" length="15.76" shape="803.17,900.78 809.14,896.59 817.50,895.20"/>
    </edge>
    <edge id=":juncMain_31" function="internal">
        <lane id=":juncMain_31_0" index="0" disallow="pedestrian" speed="11.57" length="15.40" shape="803.17,903.18 809.14,899.59 817.50,898.40"/>
    </edge>
    <edge id=":juncMain_32" function="internal">
        <lane id=":juncMain_32_0" index="0" disallow="pedestrian" speed="3.65" length="2.34" shape="800.00,915.90 800.80,916.30 801.60,917.50"/>
    </edge>
    <edge id=":juncMain_7" function="internal">
        <lane id=":juncMain_7_0" index="0" disallow="pedestrian" speed="6.86" length="5.34" shape="817.50,911.20 814.74,911.59 812.78,912.78 812.64,913.00"/>
    </edge>
    <edge id=":juncMain_8" function="internal">
        <lane id=":juncMain_8_0" index="0" disallow="pedestrian" speed="26.29" length="35.00" shape="817.50,911.20 782.50,911.20"/>
        <lane id=":juncMain_8_1" index="1" disallow="pedestrian" speed="26.29" length="35.00" shape="817.50,908.00 782.50,908.00"/>
        <lane id=":juncMain_8_2" index="2" disallow="pedestrian" speed="26.29" length="35.00" shape="817.50,904.80 782.50,904.80"/>
        <lane id=":juncMain_8_3" index="3" disallow="pedestrian" speed="26.29" length="35.00" shape="817.50,901.60 782.50,901.60"/>
    </edge>
    <edge id=":juncMain_12" function="internal">
        <lane id=":juncMain_12_0" index="0" disallow="pedestrian" speed="11.57" length="9.23" shape="817.50,901.60 809.14,900.41 808.47,900.00"/>
    </edge>
    <edge id=":juncMain_13" function="internal">
        <lane id=":juncMain_13_0" index="0" disallow="pedestrian" speed="3.65" length="2.34" shape="817.50,901.60 816.30,900.80 815.90,900.00"/>
    </edge>
    <edge id=":juncMain_33" function="internal">
        <lane id=":juncMain_33_0" index="0" disallow="pedestrian" speed="6.86" length="4.82" shape="812.64,913.00 811.59,914.74 811.20,917.50"/>
    </edge>
    <edge id=":juncMain_34" function="internal">
        <lane id=":juncMain_34_0" index="0" disallow="pedestrian" speed="11.57" length="21.57" shape="808.47,900.00 803.18,896.83 799.59,890.86 798.40,882.50"/>
    </edge>
    <edge id=":juncMain_35" function="internal">
        <lane id=":juncMain_35_0" index="0" disallow="pedestrian" speed="3.65" length="2.34" shape="815.90,900.00 816.30,899.20 817.50,898.40"/>
    </edge>
    <edge id=":juncMain_14" function="internal">
        <lane id=":juncMain_14_0" index="0" disallow="pedestrian" speed="6.86" length="5.34" shape="811.20,882.50 811.59,885.26 812.78,887.22 813.00,887.36"/>
        <lane id=":juncMain_14_1" index="1" disallow="pedestrian" speed="7.64" length="8.30" shape="808.00,882.50 808.59,885.26 810.38,887.22 813.00,888.27"/>
    </edge>
    <edge id=":juncMain_16" function="internal">
        <lane id=":juncMain_16_0" index="0" disallow="pedestrian" speed="20.66" length="35.00" shape="808.00,882.50 808.00,917.50"/>
        <lane id=":juncMain_16_1" index="1" disallow="pedestrian" speed="20.66" length="35.00" shape="804.80,882.50 804.80,917.50"/>
    </edge>
    <edge id=":juncMain_18" function="internal">
        <lane id=":juncMain_18_0" index="0" disallow="pedestrian" speed="12.03" length="17.66" shape="801.60,882.50 800.41,892.26 796.83,899.22"/>
        <lane id=":juncMain_18_1" index="1" disallow="pedestrian" speed="11.57" length="15.40" shape="801.60,882.50 800.41,890.86 796.83,896.82"/>
    </edge>
    <edge id=":juncMain_20" function="internal">
        <lane id=":juncMain_20_0" index="0" disallow="pedestrian" speed="3.65" length="2.34" shape="801.60,882.50 800.80,883.70 800.00,884.10"/>
    </edge>
    <edge id=":juncMain_36" function="internal">
        <lane id=":juncMain_36_0" index="0" disallow="pedestrian" speed="6.86" length="4.82" shape="813.00,887.36 814.74,888.41 817.50,888.80"/>
    </edge>
    <edge id=":juncMain_37" function="internal">
        <lane id=":juncMain_37_0" index="0" disallow="pedestrian" speed="7.64" length="4.54" shape="813.00,888.27 813.34,888.41 817.50,888.80"/>
    </edge>
    <edge id=":juncMain_38" function="internal">
        <lane id=":juncMain_38_0" index="0" disallow="pedestrian" speed="12.03" length="15.76" shape="796.83,899.22 790.86,903.41 782.50,904.80"/>
    </edge>
    <edge id=":juncMain_39" function="internal">
        <lane id=":juncMain_39_0" index="0" disallow="pedestrian" speed="11.57" length="15.40" shape="796.83,896.82 790.86,900.41 782.50,901.60"/>
    </edge>
    <edge id=":juncMain_40" function="internal">
        <lane id=":juncMain_40_0" index="0" disallow="pedestrian" speed="3.65" length="2.34" shape="800.00,884.10 799.20,883.70 798.40,882.50"/>
    </edge>
    <edge id=":juncMain_21" function="internal">
        <lane id=":juncMain_21_0" index="0" disallow="pedestrian" speed="6.86" length="5.34" shape="782.50,888.80 785.26,888.41 787.22,887.22 787.36,887.00"/>
    </edge>
    <edge id=":juncMain_22" function="internal">
        <lane id=":juncMain_22_0" index="0" disallow="pedestrian" speed="26.29" length="35.00" shape="782.50,888.80 817.50,888.80"/>
        <lane id=":juncMain_22_1" index="1" disallow="pedestrian" speed="26.29" length="35.00" shape="782.50,892.00 817.50,892.00"/>
        <lane id=":juncMain_22_2" index="2" disallow="pedestrian" speed="26.29" length="35.00" shape="782.50,895.20 817.50,895.20"/>
        <lane id=":juncMain_22_3" index="3" disallow="pedestrian" speed="26.29" length="35.00" shape="782.50,898.40 817.50,898.40"/>
    </edge>
    <edge id=":juncMain_26" function="internal">
        <lane id=":juncMain_26_0" index="0" disallow="pedestrian" speed="11.57" length="9.23" shape="782.50,898.40 790.86,899.59 791.53,900.00"/>
    </edge>
    <edge id=":juncMain_27" function="internal">
        <lane id=":juncMain_27_0" index="0" disallow="pedestrian" speed="3.65" length="2.34" shape="782.50,898.40 783.70,899.20 784.10,900.00"/>
    </edge>
    <edge id=":juncMain_41" function="internal">
        <lane id=":juncMain_41_0" index="0" disallow="pedestrian" speed="6.86" length="4.82" shape="787.36,887.00 788.41,885.26 788.80,882.50"/>
    </edge>
    <edge id=":juncMain_42" function="internal">
        <lane id=":juncMain_42_0" index="0" disallow="pedestrian" speed="11.57" length="21.57" shape="791.53,900.00 796.82,903.17 800.41,909.14 801.60,917.50"/>
    </edge>
    <edge id=":juncMain_43" function="internal">
        <lane id=":juncMain_43_0" index="0" disallow="pedestrian" speed="3.65" length="2.34" shape="784.10,900.00 783.70,900.80 782.50,901.60"/>
    </edge>
    <edge id=":juncMain_c0" function="crossing" crossingEdges="edgeN_I edgeN_O">
        <lane id=":juncMain_c0_0" index="0" allow="pedestrian" speed="1.00" length="25.60" width="4.50" shape="812.80,915.25 787.20,915.25"/>
    </edge>
    <edge id=":juncMain_c1" function="crossing" crossingEdges="edgeE_I edgeE_O">
        <lane id=":juncMain_c1_0" index="0" allow="pedestrian" speed="1.00" length="25.60" width="4.50" shape="815.25,887.20 815.25,912.80"/>
    </edge>
    <edge id=":juncMain_c2" function="crossing" crossingEdges="edgeS_I edgeS_O">
        <lane id=":juncMain_c2_0" index="0" allow="pedestrian" speed="1.00" length="25.60" width="4.50" shape="787.20,884.75 812.80,884.75"/>
    </edge>
    <edge id=":juncMain_c3" function="crossing" crossingEdges="edgeW_I edgeW_O">
        <lane id=":juncMain_c3_0" index="0" allow="pedestrian" speed="1.00" length="25.60" width="4.50" shape="784.75,912.80 784.75,887.20"/>
    </edge>
    <edge id=":juncMain_w0" function="walkingarea">
        <lane id=":juncMain_w0_0" index="0" allow="pedestrian" speed="1.00" length="3.82" width="4.50" shape="782.50,912.80 782.50,916.00 784.00,917.50 787.20,917.50 787.07,916.06 786.68,914.89 786.02,913.98 785.11,913.32 783.94,912.93"/>
    </edge>
    <edge id=":juncMain_w1" function="walkingarea">
        <lane id=":juncMain_w1_0" index="0" allow="pedestrian" speed="1.00" length="3.82" width="4.50" shape="812.80,917.50 816.00,917.50 817.50,916.00 817.50,912.80 816.06,912.93 814.89,913.32 813.98,913.98 813.32,914.89 812.93,916.06"/>
    </edge>
    <edge id=":juncMain_w2" function="walkingarea">
        <lane id=":juncMain_w2_0" index="0" allow="pedestrian" speed="1.00" length="3.82" width="4.50" shape="817.50,887.20 817.50,884.00 816.00,882.50 812.80,882.50 812.93,883.94 813.32,885.11 813.98,886.02 814.89,886.68 816.06,887.07"/>
    </edge>
    <edge id=":juncMain_w3" function="walkingarea">
        <lane id=":juncMain_w3_0" index="0" allow="pedestrian" speed="1.00" length="3.82" width="4.50" shape="787.20,882.50 784.00,882.50 782.50,884.00 782.50,887.20 783.94,887.07 785.11,886.68 786.02,886.02 786.68,885.11 787.07,883.94"/>
    </edge>
    <edge id=":juncN_0" function="internal">
        <lane id=":juncN_0_0" index="0" disallow="pedestrian" speed="3.65" length="4.67" shape="801.60,1400.00 800.80,1401.20 800.00,1401.60 799.20,1401.20 798.40,1400.00"/>
    </edge>
    <edge id=":juncN_w0" function="walkingarea">
        <lane id=":juncN_w0_0" index="0" allow="pedestrian" speed="1.00" length="28.80" width="3.20" shape="787.20,1400.00 784.00,1400.00 816.00,1400.00 812.80,1400.00"/>
    </edge>
    <edge id=":juncS_0" function="internal">
        <lane id=":juncS_0_0" index="0" disallow="pedestrian" speed="3.65" length="4.67" shape="798.40,0.00 799.20,-1.20 800.00,-1.60 800.80,-1.20 801.60,0.00"/>
    </edge>
    <edge id=":juncS_w0" function="walkingarea">
        <lane id=":juncS_w0_0" index="0" allow="pedestrian" speed="1.00" length="28.80" width="3.20" shape="812.80,0.00 816.00,0.00 784.00,0.00 787.20,0.00"/>
    </edge>
    <edge id=":juncW_0" function="internal">
        <lane id=":juncW_0_0" index="0" disallow="pedestrian" speed="3.65" length="4.67" shape="0.00,901.60 -1.20,900.80 -1.60,900.00 -1.20,899.20 0.00,898.40"/>
    </edge>
    <edge id=":juncW_w0" function="walkingarea">
        <lane id=":juncW_w0_0" index="0" allow="pedestrian" speed="1.00" length="28.80" width="3.20" shape="0.00,887.20 0.00,884.00 0.00,916.00 0.00,912.80"/>
    </edge>

    <edge id="edgeE_I" from="juncMain" to="juncE" priority="46">
        <lane id="edgeE_I_0" index="0" allow="pedestrian" speed="25.87" length="682.50" shape="817.50,885.60 1500.00,885.60"/>
        <lane id="edgeE_I_1" index="1" disallow="pedestrian" speed="25.87" length="682.50" shape="817.50,888.80 1500.00,888.80"/>
        <lane id="edgeE_I_2" index="2" disallow="pedestrian" speed="25.87" length="682.50" shape="817.50,892.00 1500.00,892.00"/>
        <lane id="edgeE_I_3" index="3" disallow="pedestrian" speed="25.87" length="682.50" shape="817.50,895.20 1500.00,895.20"/>
        <lane id="edgeE_I_4" index="4" disallow="pedestrian" speed="25.87" length="682.50" shape="817.50,898.40 1500.00,898.40"/>
    </edge>
    <edge id="edgeE_O" from="juncE" to="juncMain" priority="78">
        <lane id="edgeE_O_0" index="0" allow="pedestrian" speed="26.71" length="682.50" shape="1500.00,914.40 817.50,914.40"/>
        <lane id="edgeE_O_1" index="1" disallow="pedestrian" speed="26.71" length="682.50" shape="1500.00,911.20 817.50,911.20"/>
        <lane id="edgeE_O_2" index="2" disallow="pedestrian" speed="26.71" length="682.50" shape="1500.00,908.00 817.50,908.00"/>
        <lane id="edgeE_O_3" index="3" disallow="pedestrian" speed="26.71" length="682.50" shape="1500.00,904.80 817.50,904.80"/>
        <lane id="edgeE_O_4" index="4" disallow="pedestrian" speed="26.71" length="682.50" shape="1500.00,901.60 817.50,901.60"/>
    </edge>
    <edge id="edgeN_I" from="juncMain" to="juncN" priority="46">
        <lane id="edgeN_I_0" index="0" allow="pedestrian" speed="20.33" length="482.50" shape="814.40,917.50 814.40,1400.00"/>
        <lane id="edgeN_I_1" index="1" disallow="pedestrian" speed="20.33" length="482.50" shape="811.20,917.50 811.20,1400.00"/>
        <lane id="edgeN_I_2" index="2" disallow="pedestrian" speed="20.33" length="482.50" shape="808.00,917.50 808.00,1400.00"/>
        <lane id="edgeN_I_3" index="3" disallow="pedestrian" speed="20.33" length="482.50" shape="804.80,917.50 804.80,1400.00"/>
        <lane id="edgeN_I_4" index="4" disallow="pedestrian" speed="20.33" length="482.50" shape="801.60,917.50 801.60,1400.00"/>
    </edge>
    <edge id="edgeN_O" from="juncN" to="juncMain" priority="78">
        <lane id="edgeN_O_0" index="0" allow="pedestrian" speed="20.99" length="482.50" shape="785.60,1400.00 785.60,917.50"/>
        <lane id="edgeN_O_1" index="1" disallow="pedestrian" speed="20.99" length="482.50" shape="788.80,1400.00 788.80,917.50"/>
        <lane id="edgeN_O_2" index="2" disallow="pedestrian" speed="20.99" length="482.50" shape="792.00,1400.00 792.00,917.50"/>
        <lane id="edgeN_O_3" index="3" disallow="pedestrian" speed="20.99" length="482.50" shape="795.20,1400.00 795.20,917.50"/>
        <lane id="edgeN_O_4" index="4" disallow="pedestrian" speed="20.99" length="482.50" shape="798.40,1400.00 798.40,917.50"/>
    </edge>
    <edge id="edgeS_I" from="juncMain" to="juncS" priority="46">
        <lane id="edgeS_I_0" index="0" allow="pedestrian" speed="20.33" length="882.50" shape="785.60,882.50 785.60,0.00"/>
        <lane id="edgeS_I_1" index="1" disallow="pedestrian" speed="20.33" length="882.50" shape="788.80,882.50 788.80,0.00"/>
        <lane id="edgeS_I_2" index="2" disallow="pedestrian" speed="20.33" length="882.50" shape="792.00,882.50 792.00,0.00"/>
        <lane id="edgeS_I_3" index="3" disallow="pedestrian" speed="20.33" length="882.50" shape="795.20,882.50 795.20,0.00"/>
        <lane id="edgeS_I_4" index="4" disallow="pedestrian" speed="20.33" length="882.50" shape="798.40,882.50 798.40,0.00"/>
    </edge>
    <edge id="edgeS_O" from="juncS" to="juncMain" priority="78">
        <lane id="edgeS_O_0" index="0" allow="pedestrian" speed="20.99" length="882.50" shape="814.40,0.00 814.40,882.50"/>
        <lane id="edgeS_O_1" index="1" disallow="pedestrian" speed="20.99" length="882.50" shape="811.20,0.00 811.20,882.50"/>
        <lane id="edgeS_O_2" index="2" disallow="pedestrian" speed="20.99" length="882.50" shape="808.00,0.00 808.00,882.50"/>
        <lane id="edgeS_O_3" index="3" disallow="pedestrian" speed="20.99" length="882.50" shape="804.80,0.00 804.80,882.50"/>
        <lane id="edgeS_O_4" index="4" disallow="pedestrian" speed="20.99" length="882.50" shape="801.60,0.00 801.60,882.50"/>
    </edge>
    <edge id="edgeW_I" from="juncMain" to="juncW" priority="46">
        <lane id="edgeW_I_0" index="0" allow="pedestrian" speed="25.87" length="782.50" shape="782.50,914.40 0.00,914.40"/>
        <lane id="edgeW_I_1" index="1" disallow="pedestrian" speed="25.87" length="782.50" shape="782.50,911.20 0.00,911.20"/>
        <lane id="edgeW_I_2" index="2" disallow="pedestrian" speed="25.87" length="782.50" shape="782.50,908.00 0.00,908.00"/>
        <lane id="edgeW_I_3" index="3" disallow="pedestrian" speed="25.87" length="782.50" shape="782.50,904.80 0.00,904.80"/>
        <lane id="edgeW_I_4" index="4" disallow="pedestrian" speed="25.87" length="782.50" shape="782.50,901.60 0.00,901.60"/>
    </edge>
    <edge id="edgeW_O" from="juncW" to="juncMain" priority="78">
        <lane id="edgeW_O_0" index="0" allow="pedestrian" speed="26.71" length="782.50" shape="0.00,885.60 782.50,885.60"/>
        <lane id="edgeW_O_1" index="1" disallow="pedestrian" speed="26.71" length="782.50" shape="0.00,888.80 782.50,888.80"/>
        <lane id="edgeW_O_2" index="2" disallow="pedestrian" speed="26.71" length="782.50" shape="0.00,892.00 782.50,892.00"/>
        <lane id="edgeW_O_3" index="3" disallow="pedestrian" speed="26.71" length="782.50" shape="0.00,895.20 782.50,895.20"/>
        <lane id="edgeW_O_4" index="4" disallow="pedestrian" speed="26.71" length="782.50" shape="0.00,898.40 782.50,898.40"/>
    </edge>

    <tlLogic id="juncMain" type="static" programID="0" offset="0">
        <phase duration="28" state="rrrrrrrgGGGGggrrrrrrrgGGGGggGrGr"/>
        <phase duration="5"  state="rrrrrrrgGGGGggrrrrrrrgGGGGggrrrr"/>
        <phase duration="6"  state="rrrrrrryyyyyyyrrrrrrryyyyyyyrrrr"/>
        <phase duration="28" state="ggGGrrrrrrrrrrggGGrrrrrrrrrrrGrG"/>
        <phase duration="5"  state="ggGGrrrrrrrrrrggGGrrrrrrrrrrrrrr"/>
        <phase duration="6"  state="yyyyrrrrrrrrrryyyyrrrrrrrrrrrrrr"/>
        <phase duration="6"  state="rrrrGGGrrrrrrrrrrrGGGrrrrrrrrrrr"/>
        <phase duration="6"  state="rrrryyyrrrrrrrrrrryyyrrrrrrrrrrr"/>
    </tlLogic>

    <junction id="juncE" type="priority" x="1500.00" y="900.00" incLanes="edgeE_I_0 edgeE_I_1 edgeE_I_2 edgeE_I_3 edgeE_I_4" intLanes=":juncE_0_0" shape="1500.00,900.00 1500.00,884.00 1500.00,900.00">
        <request index="0" response="0" foes="0" cont="0"/>
    </junction>
    <junction id="juncMain" type="traffic_light" x="800.00" y="900.00" incLanes="edgeN_O_0 edgeN_O_1 edgeN_O_2 edgeN_O_3 edgeN_O_4 edgeE_O_0 edgeE_O_1 edgeE_O_2 edgeE_O_3 edgeE_O_4 edgeS_O_0 edgeS_O_1 edgeS_O_2 edgeS_O_3 edgeS_O_4 edgeW_O_0 edgeW_O_1 edgeW_O_2 edgeW_O_3 edgeW_O_4 :juncMain_w1_0 :juncMain_w2_0 :juncMain_w3_0 :juncMain_w0_0" intLanes=":juncMain_28_0 :juncMain_29_0 :juncMain_2_0 :juncMain_2_1 :juncMain_30_0 :juncMain_31_0 :juncMain_32_0 :juncMain_33_0 :juncMain_8_0 :juncMain_8_1 :juncMain_8_2 :juncMain_8_3 :juncMain_34_0 :juncMain_35_0 :juncMain_36_0 :juncMain_37_0 :juncMain_16_0 :juncMain_16_1 :juncMain_38_0 :juncMain_39_0 :juncMain_40_0 :juncMain_41_0 :juncMain_22_0 :juncMain_22_1 :juncMain_22_2 :juncMain_22_3 :juncMain_42_0 :juncMain_43_0 :juncMain_c0_0 :juncMain_c1_0 :juncMain_c2_0 :juncMain_c3_0" shape="784.00,917.50 816.00,917.50 816.17,916.67 816.38,916.38 816.67,916.17 817.04,916.04 817.50,916.00 817.50,884.00 816.67,883.83 816.38,883.62 816.17,883.33 816.04,882.96 816.00,882.50 784.00,882.50 783.83,883.33 783.62,883.62 783.33,883.83 782.96,883.96 782.50,884.00 782.50,916.00 783.33,916.17 783.62,916.38 783.83,916.67 783.96,917.04">
        <request index="0"  response="10010000000000000000111100000000" foes="10010000000000000000111100000010" cont="1"/>
        <request index="1"  response="10010000000000000000111100000001" foes="10010000000000000000111100000001" cont="1"/>
        <request index="2"  response="01010111110000000000111100000000" foes="01010111110011000000111100000000" cont="0"/>
        <request index="3"  response="01010111110000000000111100000000" foes="01010111110011000000111100000000" cont="0"/>
        <request index="4"  response="00110111110000110001111100000000" foes="00110111110000110011111100000000" cont="1"/>
        <request index="5"  response="00110111110000110001111100000000" foes="00110111110000110011111100000000" cont="1"/>
        <request index="6"  response="00010100000000000000000000000000" foes="00010100000000000000000000000000" cont="1"/>
        <request index="7"  response="00110000000000000000000000000000" foes="00110000000000000000000000000000" cont="1"/>
        <request index="8"  response="10100000000011000000000000110011" foes="10101100000011110000000000111111" cont="0"/>
        <request index="9"  response="10100000000011000000000000110011" foes="10101100000011110000000000111111" cont="0"/>
        <request index="10" response="10100000000011000000000000110011" foes="10101100000011110000000000111111" cont="0"/>
        <request index="11" response="10100000000011000000000000110011" foes="10101100000011110000000000111111" cont="0"/>
        <request index="12" response="01100011110011000000000000110000" foes="01100011110111110000000000110000" cont="1"/>
        <request index="13" response="00100011110000000000000000110000" foes="00100011110000000000000000110000" cont="1"/>
        <request index="14" response="01100011110000000000000000000000" foes="01100011110000001000000000000000" cont="1"/>
        <request index="15" response="01100011110000000100000000000000" foes="01100011110000000100000000000000" cont="1"/>
        <request index="16" response="01010011110000000001111100000000" foes="01010011110000000001111100110000" cont="0"/>
        <request index="17" response="01010011110000000001111100000000" foes="01010011110000000001111100110000" cont="0"/>
        <request index="18" response="11000111110000000001111100001100" foes="11001111110000000001111100001100" cont="1"/>
        <request index="19" response="11000111110000000001111100001100" foes="11001111110000000001111100001100" cont="1"/>
        <request index="20" response="01000000000000000001000000000000" foes="01000000000000000001000000000000" cont="1"/>
        <request index="21" response="11000000000000000000000000000000" foes="11000000000000000000000000000000" cont="1"/>
        <request index="22" response="10100000000011001100000000110000" foes="10100000000011111111000000111100" cont="0"/>
        <request index="23" response="10100000000011001100000000110000" foes="10100000000011111111000000111100" cont="0"/>
        <request index="24" response="10100000000011001100000000110000" foes="10100000000011111111000000111100" cont="0"/>
        <request index="25" response="10100000000011001100000000110000" foes="10100000000011111111000000111100" cont="0"/>
        <request index="26" response="10010000000011000000111100110000" foes="10010000000011000000111101111100" cont="1"/>
        <request index="27" response="10000000000011000000111100000000" foes="10000000000011000000111100000000" cont="1"/>
        <request index="28" response="00000000000000000000000000000000" foes="00000100000000110000000011111111" cont="0"/>
        <request index="29" response="00000000000000000000000000000000" foes="00000011110000001111111110110000" cont="0"/>
        <request index="30" response="00000000000000000000000000000000" foes="00000000001111111101000000001100" cont="0"/>
        <request index="31" response="00000000000000000000000000000000" foes="00001111111011000000111100000011" cont="0"/>
    </junction>
    <junction id="juncN" type="priority" x="800.00" y="1400.00" incLanes="edgeN_I_0 edgeN_I_1 edgeN_I_2 edgeN_I_3 edgeN_I_4" intLanes=":juncN_0_0" shape="800.00,1400.00 816.00,1400.00 800.00,1400.00">
        <request index="0" response="0" foes="0" cont="0"/>
    </junction>
    <junction id="juncS" type="priority" x="800.00" y="0.00" incLanes="edgeS_I_0 edgeS_I_1 edgeS_I_2 edgeS_I_3 edgeS_I_4" intLanes=":juncS_0_0" shape="800.00,0.00 784.00,0.00 800.00,0.00">
        <request index="0" response="0" foes="0" cont="0"/>
    </junction>
    <junction id="juncW" type="priority" x="0.00" y="900.00" incLanes="edgeW_I_0 edgeW_I_1 edgeW_I_2 edgeW_I_3 edgeW_I_4" intLanes=":juncW_0_0" shape="0.00,900.00 0.00,916.00 0.00,900.00">
        <request index="0" response="0" foes="0" cont="0"/>
    </junction>

    <junction id=":juncMain_28_0" type="internal" x="787.00" y="912.64" incLanes=":juncMain_0_0" intLanes=":juncMain_0_1 :juncMain_8_0 :juncMain_8_1 :juncMain_8_2 :juncMain_8_3 :juncMain_18_0 :juncMain_18_1 :juncMain_27_0 :juncMain_c0_0 :juncMain_c3_0"/>
    <junction id=":juncMain_29_0" type="internal" x="787.00" y="911.73" incLanes=":juncMain_0_1" intLanes=":juncMain_0_0 :juncMain_8_0 :juncMain_8_1 :juncMain_8_2 :juncMain_8_3 :juncMain_18_0 :juncMain_18_1 :juncMain_27_0 :juncMain_c0_0 :juncMain_c3_0"/>
    <junction id=":juncMain_30_0" type="internal" x="803.17" y="900.78" incLanes=":juncMain_4_0 edgeS_O_1 edgeS_O_2 edgeS_O_3" intLanes=":juncMain_8_0 :juncMain_8_1 :juncMain_8_2 :juncMain_8_3 :juncMain_12_0 :juncMain_13_0 :juncMain_14_0 :juncMain_14_1 :juncMain_16_0 :juncMain_16_1 :juncMain_22_0 :juncMain_22_1 :juncMain_22_2 :juncMain_22_3 :juncMain_26_0 :juncMain_c0_0 :juncMain_c1_0"/>
    <junction id=":juncMain_31_0" type="internal" x="803.17" y="903.18" incLanes=":juncMain_4_1 edgeS_O_1 edgeS_O_2 edgeS_O_3" intLanes=":juncMain_8_0 :juncMain_8_1 :juncMain_8_2 :juncMain_8_3 :juncMain_12_0 :juncMain_13_0 :juncMain_14_0 :juncMain_14_1 :juncMain_16_0 :juncMain_16_1 :juncMain_22_0 :juncMain_22_1 :juncMain_22_2 :juncMain_22_3 :juncMain_26_0 :juncMain_c0_0 :juncMain_c1_0"/>
    <junction id=":juncMain_32_0" type="internal" x="800.00" y="915.90" incLanes=":juncMain_6_0 edgeE_O_1 edgeS_O_2 edgeS_O_3 edgeW_O_4" intLanes=":juncMain_7_0 :juncMain_16_0 :juncMain_16_1 :juncMain_26_0 :juncMain_c0_0 :juncMain_c0_0"/>
    <junction id=":juncMain_33_0" type="internal" x="812.64" y="913.00" incLanes=":juncMain_7_0" intLanes=":juncMain_6_0 :juncMain_16_0 :juncMain_16_1 :juncMain_26_0 :juncMain_c0_0 :juncMain_c1_0"/>
    <junction id=":juncMain_34_0" type="internal" x="808.47" y="900.00" incLanes=":juncMain_12_0 edgeW_O_1 edgeW_O_2 edgeW_O_3 edgeW_O_4" intLanes=":juncMain_2_0 :juncMain_2_1 :juncMain_4_0 :juncMain_4_1 :juncMain_16_0 :juncMain_16_1 :juncMain_18_0 :juncMain_18_1 :juncMain_20_0 :juncMain_21_0 :juncMain_22_0 :juncMain_22_1 :juncMain_22_2 :juncMain_22_3 :juncMain_c1_0 :juncMain_c2_0"/>
    <junction id=":juncMain_35_0" type="internal" x="815.90" y="900.00" incLanes=":juncMain_13_0 edgeN_O_4 edgeS_O_1 edgeS_O_2 edgeW_O_1 edgeW_O_2 edgeW_O_3 edgeW_O_4" intLanes=":juncMain_4_0 :juncMain_4_1 :juncMain_14_0 :juncMain_14_1 :juncMain_22_0 :juncMain_22_1 :juncMain_22_2 :juncMain_22_3 :juncMain_c1_0 :juncMain_c1_0"/>
    <junction id=":juncMain_36_0" type="internal" x="813.00" y="887.36" incLanes=":juncMain_14_0" intLanes=":juncMain_4_0 :juncMain_4_1 :juncMain_13_0 :juncMain_14_1 :juncMain_22_0 :juncMain_22_1 :juncMain_22_2 :juncMain_22_3 :juncMain_c1_0 :juncMain_c2_0"/>
    <junction id=":juncMain_37_0" type="internal" x="813.00" y="888.27" incLanes=":juncMain_14_1" intLanes=":juncMain_4_0 :juncMain_4_1 :juncMain_13_0 :juncMain_14_0 :juncMain_22_0 :juncMain_22_1 :juncMain_22_2 :juncMain_22_3 :juncMain_c1_0 :juncMain_c2_0"/>
    <junction id=":juncMain_38_0" type="internal" x="796.83" y="899.22" incLanes=":juncMain_18_0 edgeN_O_1 edgeN_O_2 edgeN_O_3" intLanes=":juncMain_0_0 :juncMain_0_1 :juncMain_2_0 :juncMain_2_1 :juncMain_8_0 :juncMain_8_1 :juncMain_8_2 :juncMain_8_3 :juncMain_12_0 :juncMain_22_0 :juncMain_22_1 :juncMain_22_2 :juncMain_22_3 :juncMain_26_0 :juncMain_27_0 :juncMain_c2_0 :juncMain_c3_0"/>
    <junction id=":juncMain_39_0" type="internal" x="796.83" y="896.82" incLanes=":juncMain_18_1 edgeN_O_1 edgeN_O_2 edgeN_O_3" intLanes=":juncMain_0_0 :juncMain_0_1 :juncMain_2_0 :juncMain_2_1 :juncMain_8_0 :juncMain_8_1 :juncMain_8_2 :juncMain_8_3 :juncMain_12_0 :juncMain_22_0 :juncMain_22_1 :juncMain_22_2 :juncMain_22_3 :juncMain_26_0 :juncMain_27_0 :juncMain_c2_0 :juncMain_c3_0"/>
    <junction id=":juncMain_40_0" type="internal" x="800.00" y="884.10" incLanes=":juncMain_20_0 edgeE_O_4 edgeN_O_2 edgeN_O_3 edgeW_O_1" intLanes=":juncMain_2_0 :juncMain_2_1 :juncMain_12_0 :juncMain_21_0 :juncMain_c2_0 :juncMain_c2_0"/>