<?xml version="1.0" encoding="UTF-8"?>

<!-- generated on 2021-11-10 18:12:01 by Eclipse SUMO netconvert Version 1.10.0
<configuration xmlns:xsi="http://www.w3.org/2001/XMLSchema-instance" xsi:noNamespaceSchemaLocation="http://sumo.dlr.de/xsd/netconvertConfiguration.xsd">

    <input>
        <node-files value="data/cross.nod.xml"/>
        <edge-files value="data/cross.edg.xml"/>
        <connection-files value="data/cross.con.xml"/>
    </input>

    <output>
        <output-file value="data/cross.net.xml"/>
    </output>

    <junctions>
        <no-turnarounds.except-turnlane value="true"/>
    </junctions>

    <report>
        <aggregate-warnings value="5"/>
    </report>

</configuration>
-->

<net version="1.9" junctionCornerDetail="5" limitTurnSpeed="5.50" xmlns:xsi="http://www.w3.org/2001/XMLSchema-instance" xsi:noNamespaceSchemaLocation="http://sumo.dlr.de/xsd/net_file.xsd">

    <location netOffset="900.00,400.00" convBoundary="0.00,0.00,1300.00,1200.00" origBoundary="-900.00,-400.00,400.00,800.00" projParameter="!"/>

    <edge id=":juncE_0" function="internal">
        <lane id=":juncE_0_0" index="0" disallow="pedestrian" speed="3.65" length="4.67" shape="1300.00,398.40 1301.20,399.20 1301.60,400.00 1301.20,400.80 1300.00,401.60"/>
    </edge>
    <edge id=":juncE_w0" function="walkingarea">
        <lane id=":juncE_w0_0" index="0" allow="pedestrian" speed="1.00" length="35.20" width="3.20" shape="1300.00,416.00 1300.00,419.20 1300.00,380.80 1300.00,384.00"/>
    </edge>
    <edge id=":juncMain_0" function="internal">
        <lane id=":juncMain_0_0" index="0" disallow="pedestrian" speed="6.86" length="5.34" shape="892.00,420.70 891.61,417.94 890.42,415.98 890.20,415.84"/>
    </edge>
    <edge id=":juncMain_1" function="internal">
        <lane id=":juncMain_1_0" index="0" disallow="pedestrian" speed="18.78" length="41.40" shape="892.00,420.70 892.00,379.30"/>
        <lane id=":juncMain_1_1" index="1" disallow="pedestrian" speed="18.78" length="41.40" shape="895.20,420.70 895.20,379.30"/>
    </edge>
    <edge id=":juncMain_3" function="internal">
        <lane id=":juncMain_3_0" index="0" disallow="pedestrian" speed="11.60" length="18.46" shape="898.40,420.70 899.39,410.94 902.38,403.98 903.20,403.28"/>
    </edge>
    <edge id=":juncMain_4" function="internal">
        <lane id=":juncMain_4_0" index="0" disallow="pedestrian" speed="3.65" length="2.34" shape="898.40,420.70 899.20,419.50 900.00,419.10"/>
    </edge>
    <edge id=":juncMain_24" function="internal">
        <lane id=":juncMain_24_0" index="0" disallow="pedestrian" speed="6.86" length="4.82" shape="890.20,415.84 888.46,414.79 885.70,414.40"/>
    </edge>
    <edge id=":juncMain_25" function="internal">
        <lane id=":juncMain_25_0" index="0" disallow="pedestrian" speed="11.60" length="12.51" shape="903.20,403.28 907.34,399.79 914.30,398.40"/>
    </edge>
    <edge id=":juncMain_26" function="internal">
        <lane id=":juncMain_26_0" index="0" disallow="pedestrian" speed="3.65" length="2.34" shape="900.00,419.10 900.80,419.50 901.60,420.70"/>
    </edge>
    <edge id=":juncMain_5" function="internal">
        <lane id=":juncMain_5_0" index="0" disallow="pedestrian" speed="6.86" length="5.34" shape="914.30,414.40 911.54,414.79 909.58,415.97 909.44,416.20"/>
    </edge>
    <edge id=":juncMain_6" function="internal">
        <lane id=":juncMain_6_0" index="0" disallow="pedestrian" speed="22.16" length="28.60" shape="914.30,411.20 885.70,411.20"/>
        <lane id=":juncMain_6_1" index="1" disallow="pedestrian" speed="22.16" length="28.60" shape="914.30,408.00 885.70,408.00"/>
        <lane id=":juncMain_6_2" index="2" disallow="pedestrian" speed="22.16" length="28.60" shape="914.30,404.80 885.70,404.80"/>
    </edge>
    <edge id=":juncMain_9" function="internal">
        <lane id=":juncMain_9_0" index="0" disallow="pedestrian" speed="12.03" length="14.41" shape="914.30,401.60 905.94,400.21 901.08,396.80"/>
        <lane id=":juncMain_9_1" index="1" disallow="pedestrian" speed="11.60" length="12.38" shape="914.30,401.60 907.34,400.21 903.30,396.80"/>
    </edge>
    <edge id=":juncMain_11" function="internal">
        <lane id=":juncMain_11_0" index="0" disallow="pedestrian" speed="3.65" length="2.34" shape="914.30,401.60 913.10,400.80 912.70,400.00"/>
    </edge>
    <edge id=":juncMain_27" function="internal">
        <lane id=":juncMain_27_0" index="0" disallow="pedestrian" speed="6.86" length="4.82" shape="909.44,416.20 908.39,417.94 908.00,420.70"/>
    </edge>
    <edge id=":juncMain_28" function="internal">
        <lane id=":juncMain_28_0" index="0" disallow="pedestrian" speed="12.03" length="19.01" shape="901.08,396.80 899.98,396.03 896.39,389.06 895.20,379.30"/>
    </edge>
    <edge id=":juncMain_29" function="internal">
        <lane id=":juncMain_29_0" index="0" disallow="pedestrian" speed="11.60" length="18.59" shape="903.30,396.80 902.38,396.03 899.39,389.06 898.40,379.30"/>
    </edge>
    <edge id=":juncMain_30" function="internal">
        <lane id=":juncMain_30_0" index="0" disallow="pedestrian" speed="3.65" length="2.34" shape="912.70,400.00 913.10,399.20 914.30,398.40"/>
    </edge>
    <edge id=":juncMain_12" function="internal">
        <lane id=":juncMain_12_0" index="0" disallow="pedestrian" speed="6.86" length="5.34" shape="908.00,379.30 908.39,382.06 909.58,384.02 909.80,384.16"/>
    </edge>
    <edge id=":juncMain_13" function="internal">
        <lane id=":juncMain_13_0" index="0" disallow="pedestrian" speed="18.78" length="41.40" shape="908.00,379.30 908.00,420.70"/>
        <lane id=":juncMain_13_1" index="1" disallow="pedestrian" speed="18.78" length="41.40" shape="904.80,379.30 904.80,420.70"/>
    </edge>
    <edge id=":juncMain_15" function="internal">
        <lane id=":juncMain_15_0" index="0" disallow="pedestrian" speed="11.60" length="18.46" shape="901.60,379.30 900.61,389.06 897.62,396.02 896.80,396.72"/>
    </edge>
    <edge id=":juncMain_16" function="internal">
        <lane id=":juncMain_16_0" index="0" disallow="pedestrian" speed="3.65" length="2.34" shape="901.60,379.30 900.80,380.50 900.00,380.90"/>
    </edge>
    <edge id=":juncMain_31" function="internal">
        <lane id=":juncMain_31_0" index="0" disallow="pedestrian" speed="6.86" length="4.82" shape="909.80,384.16 911.54,385.21 914.30,385.60"/>
    </edge>
    <edge id=":juncMain_32" function="internal">
        <lane id=":juncMain_32_0" index="0" disallow="pedestrian" speed="11.60" length="12.51" shape="896.80,396.72 892.66,400.21 885.70,401.60"/>
    </edge>
    <edge id=":juncMain_33" function="internal">
        <lane id=":juncMain_33_0" index="0" disallow="pedestrian" speed="3.65" length="2.34" shape="900.00,380.90 899.20,380.50 898.40,379.30"/>
    </edge>
    <edge id=":juncMain_17" function="internal">
        <lane id=":juncMain_17_0" index="0" disallow="pedestrian" speed="6.86" length="5.34" shape="885.70,385.60 888.46,385.21 890.42,384.03 890.56,383.80"/>
    </edge>
    <edge id=":juncMain_18" function="internal">
        <lane id=":juncMain_18_0" index="0" disallow="pedestrian" speed="22.16" length="28.60" shape="885.70,388.80 914.30,388.80"/>
        <lane id=":juncMain_18_1" index="1" disallow="pedestrian" speed="22.16" length="28.60" shape="885.70,392.00 914.30,392.00"/>
        <lane id=":juncMain_18_2" index="2" disallow="pedestrian" speed="22.16" length="28.60" shape="885.70,395.20 914.30,395.20"/>
    </edge>
    <edge id=":juncMain_21" function="internal">
        <lane id=":juncMain_21_0" index="0" disallow="pedestrian" speed="12.03" length="14.41" shape="885.70,398.40 894.06,399.79 898.92,403.20"/>
        <lane id=":juncMain_21_1" index="1" disallow="pedestrian" speed="11.60" length="12.38" shape="885.70,398.40 892.66,399.79 896.70,403.20"/>
    </edge>
    <edge id=":juncMain_23" function="internal">
        <lane id=":juncMain_23_0" index="0" disallow="pedestrian" speed="3.65" length="2.34" shape="885.70,398.40 886.90,399.20 887.30,400.00"/>
    </edge>
    <edge id=":juncMain_34" function="internal">
        <lane id=":juncMain_34_0" index="0" disallow="pedestrian" speed="6.86" length="4.82" shape="890.56,383.80 891.61,382.06 892.00,379.30"/>
    </edge>
    <edge id=":juncMain_35" function="internal">
        <lane id=":juncMain_35_0" index="0" disallow="pedestrian" speed="12.03" length="19.01" shape="898.92,403.20 900.02,403.97 903.61,410.94 904.80,420.70"/>
    </edge>
    <edge id=":juncMain_36" function="internal">
        <lane id=":juncMain_36_0" index="0" disallow="pedestrian" speed="11.60" length="18.59" shape="896.70,403.20 897.62,403.97 900.61,410.94 901.60,420.70"/>
    </edge>
    <edge id=":juncMain_37" function="internal">
        <lane id=":juncMain_37_0" index="0" disallow="pedestrian" speed="3.65" length="2.34" shape="887.30,400.00 886.90,400.80 885.70,401.60"/>
    </edge>
    <edge id=":juncMain_c0" function="crossing" crossingEdges="edgeN_I edgeN_O">
        <lane id=":juncMain_c0_0" index="0" allow="pedestrian" speed="1.00" length="19.20" width="4.50" shape="909.60,418.45 890.40,418.45"/>
    </edge>
    <edge id=":juncMain_c1" function="crossing" crossingEdges="edgeE_I edgeE_O">
        <lane id=":juncMain_c1_0" index="0" allow="pedestrian" speed="1.00" length="32.00" width="4.50" shape="912.05,384.00 912.05,416.00"/>
    </edge>
    <edge id=":juncMain_c2" function="crossing" crossingEdges="edgeS_I edgeS_O">
        <lane id=":juncMain_c2_0" index="0" allow="pedestrian" speed="1.00" length="19.20" width="4.50" shape="890.40,381.55 909.60,381.55"/>
    </edge>
    <edge id=":juncMain_c3" function="crossing" crossingEdges="edgeW_I edgeW_O">
        <lane id=":juncMain_c3_0" index="0" allow="pedestrian" speed="1.00" length="32.00" width="4.50" shape="887.95,416.00 887.95,384.00"/>
    </edge>
    <edge id=":juncMain_w0" function="walkingarea">
        <lane id=":juncMain_w0_0" index="0" allow="pedestrian" speed="1.00" length="3.82" width="4.50" shape="885.70,416.00 885.70,419.20 887.20,420.70 890.40,420.70 890.27,419.26 889.88,418.09 889.22,417.18 888.31,416.52 887.14,416.13"/>
    </edge>
    <edge id=":juncMain_w1" function="walkingarea">
        <lane id=":juncMain_w1_0" index="0" allow="pedestrian" speed="1.00" length="3.82" width="4.50" shape="909.60,420.70 912.80,420.70 914.30,419.20 914.30,416.00 912.86,416.13 911.69,416.52 910.77,417.18 910.12,418.09 909.73,419.26"/>
    </edge>
    <edge id=":juncMain_w2" function="walkingarea">
        <lane id=":juncMain_w2_0" index="0" allow="pedestrian" speed="1.00" length="3.82" width="4.50" shape="914.30,384.00 914.30,380.80 912.80,379.30 909.60,379.30 909.73,380.74 910.12,381.91 910.78,382.82 911.69,383.48 912.86,383.87"/>
    </edge>
    <edge id=":juncMain_w3" function="walkingarea">
        <lane id=":juncMain_w3_0" index="0" allow="pedestrian" speed="1.00" length="3.82" width="4.50" shape="890.40,379.30 887.20,379.30 885.70,380.80 885.70,384.00 887.14,383.87 888.31,383.48 889.23,382.82 889.88,381.91 890.27,380.74"/>
    </edge>
    <edge id=":juncN_0" function="internal">
        <lane id=":juncN_0_0" index="0" disallow="pedestrian" speed="3.65" length="4.67" shape="901.60,1200.00 900.80,1201.20 900.00,1201.60 899.20,1201.20 898.40,1200.00"/>
    </edge>
    <edge id=":juncN_w0" function="walkingarea">
        <lane id=":juncN_w0_0" index="0" allow="pedestrian" speed="1.00" length="22.40" width="3.20" shape="890.40,1200.00 887.20,1200.00 912.80,1200.00 909.60,1200.00"/>
    </edge>
    <edge id=":juncS_0" function="internal">
        <lane id=":juncS_0_0" index="0" disallow="pedestrian" speed="3.65" length="4.67" shape="898.40,0.00 899.20,-1.20 900.00,-1.60 900.80,-1.20 901.60,0.00"/>
    </edge>
    <edge id=":juncS_w0" function="walkingarea">
        <lane id=":juncS_w0_0" index="0" allow="pedestrian" speed="1.00" length="22.40" width="3.20" shape="909.60,0.00 912.80,0.00 887.20,0.00 890.40,0.00"/>
    </edge>
    <edge id=":juncW_0" function="internal">
        <lane id=":juncW_0_0" index="0" disallow="pedestrian" speed="3.65" length="4.67" shape="0.00,401.60 -1.20,400.80 -1.60,400.00 -1.20,399.20 0.00,398.40"/>
    </edge>
    <edge id=":juncW_w0" function="walkingarea">
        <lane id=":juncW_w0_0" index="0" allow="pedestrian" speed="1.00" length="35.20" width="3.20" shape="0.00,384.00 0.00,380.80 0.00,419.20 0.00,416.00"/>
    </edge>

    <edge id="edgeE_I" from="juncMain" to="juncE" priority="46">
        <lane id="edgeE_I_0" index="0" allow="pedestrian" speed="18.97" length="385.70" shape="914.30,382.40 1300.00,382.40"/>
        <lane id="edgeE_I_1" index="1" disallow="pedestrian" speed="18.97" length="385.70" shape="914.30,385.60 1300.00,385.60"/>
        <lane id="edgeE_I_2" index="2" disallow="pedestrian" speed="18.97" length="385.70" shape="914.30,388.80 1300.00,388.80"/>
        <lane id="edgeE_I_3" index="3" disallow="pedestrian" speed="18.97" length="385.70" shape="914.30,392.00 1300.00,392.00"/>
        <lane id="edgeE_I_4" index="4" disallow="pedestrian" speed="18.97" length="385.70" shape="914.30,395.20 1300.00,395.20"/>
        <lane id="edgeE_I_5" index="5" disallow="pedestrian" speed="18.97" length="385.70" shape="914.30,398.40 1300.00,398.40"/>
    </edge>
    <edge id="edgeE_O" from="juncE" to="juncMain" priority="78">
        <lane id="edgeE_O_0" index="0" allow="pedestrian" speed="25.36" length="385.70" shape="1300.00,417.60 914.30,417.60"/>
        <lane id="edgeE_O_1" index="1" disallow="pedestrian" speed="25.36" length="385.70" shape="1300.00,414.40 914.30,414.40"/>
        <lane id="edgeE_O_2" index="2" disallow="pedestrian" speed="25.36" length="385.70" shape="1300.00,411.20 914.30,411.20"/>
        <lane id="edgeE_O_3" index="3" disallow="pedestrian" speed="25.36" length="385.70" shape="1300.00,408.00 914.30,408.00"/>
        <lane id="edgeE_O_4" index="4" disallow="pedestrian" speed="25.36" length="385.70" shape="1300.00,404.80 914.30,404.80"/>
        <lane id="edgeE_O_5" index="5" disallow="pedestrian" speed="25.36" length="385.70" shape="1300.00,401.60 914.30,401.60"/>
    </edge>
    <edge id="edgeN_I" from="juncMain" to="juncN" priority="46">
        <lane id="edgeN_I_0" index="0" allow="pedestrian" speed="15.80" length="779.30" shape="911.20,420.70 911.20,1200.00"/>
        <lane id="edgeN_I_1" index="1" disallow="pedestrian" speed="15.80" length="779.30" shape="908.00,420.70 908.00,1200.00"/>
        <lane id="edgeN_I_2" index="2" disallow="pedestrian" speed="15.80" length="779.30" shape="904.80,420.70 904.80,1200.00"/>
        <lane id="edgeN_I_3" index="3" disallow="pedestrian" speed="15.80" length="779.30" shape="901.60,420.70 901.60,1200.00"/>
    </edge>
    <edge id="edgeN_O" from="juncN" to="juncMain" priority="78">
        <lane id="edgeN_O_0" index="0" allow="pedestrian" speed="21.76" length="779.30" shape="888.80,1200.00 888.80,420.70"/>
        <lane id="edgeN_O_1" index="1" disallow="pedestrian" speed="21.76" length="779.30" shape="892.00,1200.00 892.00,420.70"/>
        <lane id="edgeN_O_2" index="2" disallow="pedestrian" speed="21.76" length="779.30" shape="895.20,1200.00 895.20,420.70"/>
        <lane id="edgeN_O_3" index="3" disallow="pedestrian" speed="21.76" length="779.30" shape="898.40,1200.00 898.40,420.70"/>
    </edge>
    <edge id="edgeS_I" from="juncMain" to="juncS" priority="46">
        <lane id="edgeS_I_0" index="0" allow="pedestrian" speed="15.80" length="379.30" shape="888.80,379.30 888.80,0.00"/>
        <lane id="edgeS_I_1" index="1" disallow="pedestrian" speed="15.80" length="379.30" shape="892.00,379.30 892.00,0.00"/>
        <lane id="edgeS_I_2" index="2" disallow="pedestrian" speed="15.80" length="379.30" shape="895.20,379.30 895.20,0.00"/>
        <lane id="edgeS_I_3" index="3" disallow="pedestrian" speed="15.80" length="379.30" shape="898.40,379.30 898.40,0.00"/>
    </edge>
    <edge id="edgeS_O" from="juncS" to="juncMain" priority="78">
        <lane id="edgeS_O_0" index="0" allow="pedestrian" speed="21.76" length="379.30" shape="911.20,0.00 911.20,379.30"/>
        <lane id="edgeS_O_1" index="1" disallow="pedestrian" speed="21.76" length="379.30" shape="908.00,0.00 908.00,379.30"/>
        <lane id="edgeS_O_2" index="2" disallow="pedestrian" speed="21.76" length="379.30" shape="904.80,0.00 904.80,379.30"/>
        <lane id="edgeS_O_3" index="3" disallow="pedestrian" speed="21.76" length="379.30" shape="901.60,0.00 901.60,379.30"/>
    </edge>
    <edge id="edgeW_I" from="juncMain" to="juncW" priority="46">
        <lane id="edgeW_I_0" index="0" allow="pedestrian" speed="18.97" length="885.70" shape="885.70,417.60 0.00,417.60"/>
        <lane id="edgeW_I_1" index="1" disallow="pedestrian" speed="18.97" length="885.70" shape="885.70,414.40 0.00,414.40"/>
        <lane id="edgeW_I_2" index="2" disallow="pedestrian" speed="18.97" length="885.70" shape="885.70,411.20 0.00,411.20"/>
        <lane id="edgeW_I_3" index="3" disallow="pedestrian" speed="18.97" length="885.70" shape="885.70,408.00 0.00,408.00"/>
        <lane id="edgeW_I_4" index="4" disallow="pedestrian" speed="18.97" length="885.70" shape="885.70,404.80 0.00,404.80"/>
        <lane id="edgeW_I_5" index="5" disallow="pedestrian" speed="18.97" length="885.70" shape="885.70,401.60 0.00,401.60"/>
    </edge>
    <edge id="edgeW_O" from="juncW" to="juncMain" priority="78">
        <lane id="edgeW_O_0" index="0" allow="pedestrian" speed="25.36" length="885.70" shape="0.00,382.40 885.70,382.40"/>
        <lane id="edgeW_O_1" index="1" disallow="pedestrian" speed="25.36" length="885.70" shape="0.00,385.60 885.70,385.60"/>
        <lane id="edgeW_O_2" index="2" disallow="pedestrian" speed="25.36" length="885.70" shape="0.00,388.80 885.70,388.80"/>
        <lane id="edgeW_O_3" index="3" disallow="pedestrian" speed="25.36" length="885.70" shape="0.00,392.00 885.70,392.00"/>
        <lane id="edgeW_O_4" index="4" disallow="pedestrian" speed="25.36" length="885.70" shape="0.00,395.20 885.70,395.20"/>
        <lane id="edgeW_O_5" index="5" disallow="pedestrian" speed="25.36" length="885.70" shape="0.00,398.40 885.70,398.40"/>
    </edge>

    <tlLogic id="juncMain" type="static" programID="0" offset="0">
        <phase duration="22" state="rrrrrgGGGrrrrrrrrgGGGrrrGrGr"/>
        <phase duration="5"  state="rrrrrgGGGrrrrrrrrgGGGrrrrrrr"/>
        <phase duration="6"  state="rrrrryyyyrrrrrrrryyyyrrrrrrr"/>
        <phase duration="6"  state="rrrrrrrrrGGGrrrrrrrrrGGGrrrr"/>
        <phase duration="6"  state="rrrrrrrrryyyrrrrrrrrryyyrrrr"/>
        <phase duration="22" state="gGGrrrrrrrrrgGGrrrrrrrrrrGrG"/>
        <phase duration="5"  state="gGGrrrrrrrrrgGGrrrrrrrrrrrrr"/>
        <phase duration="6"  state="yyyrrrrrrrrryyyrrrrrrrrrrrrr"/>
        <phase duration="6"  state="rrrGGrrrrrrrrrrGGrrrrrrrrrrr"/>
        <phase duration="6"  state="rrryyrrrrrrrrrryyrrrrrrrrrrr"/>
    </tlLogic>

    <junction id="juncE" type="priority" x="1300.00" y="400.00" incLanes="edgeE_I_0 edgeE_I_1 edgeE_I_2 edgeE_I_3 edgeE_I_4 edgeE_I_5" intLanes=":juncE_0_0" shape="1300.00,400.00 1300.00,380.80 1300.00,400.00">
        <request index="0" response="0" foes="0" cont="0"/>
    </junction>
    <junction id="juncMain" type="traffic_light" x="900.00" y="400.00" incLanes="edgeN_O_0 edgeN_O_1 edgeN_O_2 edgeN_O_3 edgeE_O_0 edgeE_O_1 edgeE_O_2 edgeE_O_3 edgeE_O_4 edgeE_O_5 edgeS_O_0 edgeS_O_1 edgeS_O_2 edgeS_O_3 edgeW_O_0 edgeW_O_1 edgeW_O_2 edgeW_O_3 edgeW_O_4 edgeW_O_5 :juncMain_w1_0 :juncMain_w2_0 :juncMain_w3_0 :juncMain_w0_0" intLanes=":juncMain_24_0 :juncMain_1_0 :juncMain_1_1 :juncMain_25_0 :juncMain_26_0 :juncMain_27_0 :juncMain_6_0 :juncMain_6_1 :juncMain_6_2 :juncMain_28_0 :juncMain_29_0 :juncMain_30_0 :juncMain_31_0 :juncMain_13_0 :juncMain_13_1 :juncMain_32_0 :juncMain_33_0 :juncMain_34_0 :juncMain_18_0 :juncMain_18_1 :juncMain_18_2 :juncMain_35_0 :juncMain_36_0 :juncMain_37_0 :juncMain_c0_0 :juncMain_c1_0 :juncMain_c2_0 :juncMain_c3_0" shape="887.20,420.70 912.80,420.70 912.97,419.87 913.18,419.57 913.47,419.37 913.84,419.24 914.30,419.20 914.30,380.80 913.47,380.63 913.18,380.42 912.97,380.13 912.84,379.76 912.80,379.30 887.20,379.30 887.03,380.13 886.82,380.42 886.53,380.63 886.16,380.76 885.70,380.80 885.70,419.20 886.53,419.37 886.82,419.58 887.03,419.87 887.16,420.24">
        <request index="0"  response="1001000000000000000000000000" foes="1001000000000000000000000000" cont="1"/>
        <request index="1"  response="0101011111100000011111000000" foes="0101011111101000011111000000" cont="0"/>
        <request index="2"  response="0101011111100000011111000000" foes="0101011111101000011111000000" cont="0"/>
        <request index="3"  response="0011011000000110011111000000" foes="0011011000000110111111000000" cont="1"/>
        <request index="4"  response="0001011000000000000000000000" foes="0001011000000000000000000000" cont="1"/>
        <request index="5"  response="0011000000000000000000000000" foes="0011000000000110000000000000" cont="1"/>
        <request index="6"  response="1010000000000000000000001000" foes="1010011000000110000000001110" cont="0"/>
        <request index="7"  response="1010000000000000000000001000" foes="1010011000000110000000001110" cont="0"/>
        <request index="8"  response="1010000000000000000000001000" foes="1010011000000110000000001110" cont="0"/>
        <request index="9"  response="0110000111001000000000001000" foes="0110000111011110000000001110" cont="1"/>
        <request index="10" response="0110000111001000000000001000" foes="0110000111011110000000001110" cont="1"/>
        <request index="11" response="0010000000000000000000001000" foes="0010000000000000000000001000" cont="1"/>
        <request index="12" response="0110000000000000000000000000" foes="0110000000000000000000000000" cont="1"/>
        <request index="13" response="0101011111000000011111100000" foes="0101011111000000011111101000" cont="0"/>
        <request index="14" response="0101011111000000011111100000" foes="0101011111000000011111101000" cont="0"/>
        <request index="15" response="1100011111000000011000000110" foes="1100111111000000011000000110" cont="1"/>
        <request index="16" response="0100000000000000011000000000" foes="0100000000000000011000000000" cont="1"/>
        <request index="17" response="1100000000000000000000000000" foes="1100000000000000000000000110" cont="1"/>
        <request index="18" response="1010000000001000000000000000" foes="1010000000001110011000000110" cont="0"/>
        <request index="19" response="1010000000001000000000000000" foes="1010000000001110011000000110" cont="0"/>
        <request index="20" response="1010000000001000000000000000" foes="1010000000001110011000000110" cont="0"/>
        <request index="21" response="1001000000001000000111001000" foes="1001000000001110000111011110" cont="1"/>
        <request index="22" response="1001000000001000000111001000" foes="1001000000001110000111011110" cont="1"/>
        <request index="23" response="1000000000001000000000000000" foes="1000000000001000000000000000" cont="1"/>
        <request index="24" response="0000000000000000000000000000" foes="0000011000000110000000111111" cont="0"/>
        <request index="25" response="0000000000000000000000000000" foes="0000000111000001111111101000" cont="0"/>
        <request index="26" response="0000000000000000000000000000" foes="0000000000111111011000000110" cont="0"/>
        <request index="27" response="0000000000000000000000000000" foes="0000111111101000000111000001" cont="0"/>
    </junction>
    <junction id="juncN" type="priority" x="900.00" y="1200.00" incLanes="edgeN_I_0 edgeN_I_1 edgeN_I_2 edgeN_I_3" intLanes=":juncN_0_0" shape="900.00,1200.00 912.80,1200.00 900.00,1200.00">
        <request index="0" response="0" foes="0" cont="0"/>
    </junction>
    <junction id="juncS" type="priority" x="900.00" y="0.00" incLanes="edgeS_I_0 edgeS_I_1 edgeS_I_2 edgeS_I_3" intLanes=":juncS_0_0" shape="900.00,0.00 887.20,0.00 900.00,0.00">
        <request index="0" response="0" foes="0" cont="0"/>
    </junction>
    <junction id="juncW" type="priority" x="0.00" y="400.00" incLanes="edgeW_I_0 edgeW_I_1 edgeW_I_2 edgeW_I_3 edgeW_I_4 edgeW_I_5" intLanes=":juncW_0_0" shape="0.00,400.00 0.00,419.20 0.00,400.00">
        <request index="0" response="0" foes="0" cont="0"/>
    </junction>

    <junction id=":juncMain_24_0" type="internal" x="890.20" y="415.84" incLanes=":juncMain_0_0" intLanes=":juncMain_6_0 :juncMain_6_1 :juncMain_6_2 :juncMain_15_0 :juncMain_23_0 :juncMain_c0_0 :juncMain_c3_0"/>
    <junction id=":juncMain_25_0" type="internal" x="903.20" y="403.28" incLanes=":juncMain_3_0 edgeS_O_1 edgeS_O_2" intLanes=":juncMain_6_0 :juncMain_6_1 :juncMain_6_2 :juncMain_9_0 :juncMain_9_1 :juncMain_11_0 :juncMain_12_0 :juncMain_13_0 :juncMain_13_1 :juncMain_18_0 :juncMain_18_1 :juncMain_18_2 :juncMain_21_0 :juncMain_21_1 :juncMain_c0_0 :juncMain_c1_0"/>
    <junction id=":juncMain_26_0" type="internal" x="900.00" y="419.10" incLanes=":juncMain_4_0 edgeE_O_1 edgeS_O_1 edgeS_O_2 edgeW_O_5" intLanes=":juncMain_5_0 :juncMain_13_0 :juncMain_13_1 :juncMain_21_0 :juncMain_21_1 :juncMain_c0_0 :juncMain_c0_0"/>
    <junction id=":juncMain_27_0" type="internal" x="909.44" y="416.20" incLanes=":juncMain_5_0" intLanes=":juncMain_4_0 :juncMain_13_0 :juncMain_13_1 :juncMain_21_0 :juncMain_21_1 :juncMain_c0_0 :juncMain_c1_0"/>
    <junction id=":juncMain_28_0" type="internal" x="901.08" y="396.80" incLanes=":juncMain_9_0 edgeW_O_1 edgeW_O_2 edgeW_O_3 edgeW_O_4" intLanes=":juncMain_1_0 :juncMain_1_1 :juncMain_3_0 :juncMain_13_0 :juncMain_13_1 :juncMain_15_0 :juncMain_16_0 :juncMain_17_0 :juncMain_18_0 :juncMain_18_1 :juncMain_18_2 :juncMain_c1_0 :juncMain_c2_0"/>
    <junction id=":juncMain_29_0" type="internal" x="903.30" y="396.80" incLanes=":juncMain_9_1 edgeW_O_1 edgeW_O_2 edgeW_O_3 edgeW_O_4" intLanes=":juncMain_1_0 :juncMain_1_1 :juncMain_3_0 :juncMain_13_0 :juncMain_13_1 :juncMain_15_0 :juncMain_16_0 :juncMain_17_0 :juncMain_18_0 :juncMain_18_1 :juncMain_18_2 :juncMain_c1_0 :juncMain_c2_0"/>
    <junction id=":juncMain_30_0" type="internal" x="912.70" y="400.00" incLanes=":juncMain_11_0 edgeN_O_3 edgeS_O_1 edgeW_O_2 edgeW_O_3 edgeW_O_4" intLanes=":juncMain_3_0 :juncMain_12_0 :juncMain_18_0 :juncMain_18_1 :juncMain_18_2 :juncMain_c1_0 :juncMain_c1_0"/>
    <junction id=":juncMain_31_0" type="internal" x="909.80" y="384.16" incLanes=":juncMain_12_0" intLanes=":juncMain_3_0 :juncMain_11_0 :juncMain_18_0 :juncMain_18_1 :juncMain_18_2 :juncMain_c1_0 :juncMain_c2_0"/>
    <junction id=":juncMain_32_0" type="internal" x="896.80" y="396.72" incLanes=":juncMain_15_0 edgeN_O_1 edgeN_O_2" intLanes=":juncMain_0_0 :juncMain_1_0 :juncMain_1_1 :juncMain_6_0 :juncMain_6_1 :juncMain_6_2 :juncMain_9_0 :juncMain_9_1 :juncMain_18_0 :juncMain_18_1 :juncMain_18_2 :juncMain_21_0 :juncMain_21_1 :juncMain_23_0 :juncMain_c2_0 :juncMain_c3_0"/>
    <junction id=":juncMain_33_0" type="internal" x="900.00" y="380.90" incLanes=":juncMain_16_0 edgeE_O_5 edgeN_O_1 edgeN_O_2 edgeW_O_1" intLanes=":juncMain_1_0 :juncMain_1_1 :juncMain_9_0 :juncMain_9_1 :juncMain_17_0 :juncMain_c2_0 :juncMain_c2_0"/>
    <junction id=":juncMain_34_0" type="internal" x="890.56" y="383.80" incLanes=":juncMain_17_0" intLanes=":juncMain_1_0 :juncMain_1_1 :juncMain_9_0 :juncMain_9_1 :juncMain_16_0 :juncMain_c2_0 :juncMain_c3_0"/>
    <junction id=":juncMain_35_0" type="internal" x="898.92" y="403.20" incLanes=":juncMain_21_0 edgeE_O_1 edgeE_O_2 edgeE_O_3 edgeE_O_4" intLanes=":juncMain_1_0 :juncMain_1_1 :juncMain_3_0 :juncMain_4_0 :juncMain_5_0 :juncMain_6_0 :juncMain_6_1 :juncMain_6_2 :juncMain_13_0 :juncMain_13_1 :juncMain_15_0 :juncMain_c0_0 :juncMain_c3_0"/>
    <junction id=":juncMain_36_0" type="internal" x="896.70" y="403.20" incLanes=":juncMain_21_1 edgeE_O_1 edgeE_O_2 edgeE_O_3 edgeE_O_4" intLanes=":juncMain_1_0 :juncMain_1_1 :juncMain_3_0 :juncMain_4_0 :juncMain_5_0 :juncMain_6_0 :juncMain_6_1 :juncMain_6_2 :juncMain_13_0 :juncMain_13_1 :juncMain_15_0 :juncMain_c0_0 :juncMain_c3_0"/>
    <junction id=":juncMain_37_0" type="internal" x="887.30" y="400.00" incLanes=":juncMain_23_0 edgeE_O_2 edgeE_O_3 edgeE_O_4 edgeN_O_1 edgeS_O_3" intLanes=":juncMain_0_0 :juncMain_6_0 :juncMain_6_1 :juncMain_6_2 :juncMain_15_0 :juncMain_c3_0 :juncMain_c3_0"/>

    <connection from="edgeE_I" to="edgeE_O" fromLane="5" toLane="5" via=":juncE_0_0" dir="t" state="M"/>
    <connection from="edgeE_O" to="edgeN_I" fromLane="1" toLane="1" via=":juncMain_5_0" tl="juncMain" linkIndex="5" dir="r" state="o"/>
    <connection from="edgeE_O" to="edgeW_I" fromLane="2" toLane="2" via=":juncMain_6_0" tl="juncMain" linkIndex="6" dir="s" state="o"/>
    <connection from="edgeE_O" to="edgeW_I" fromLane="3" toLane="3" via=":juncMain_6_1" tl="juncMain" linkIndex="7" dir="s" state="o"/>
    <connection from="edgeE_O" to="edgeW_I" fromLane="4" toLane="4" via=":juncMain_6_2" tl="juncMain" linkIndex="8" dir="s" state="o"/>
    <connection from="edgeE_O" to="edgeS_I" fromLane="5" toLane="2" via=":juncMain_9_0" tl="juncMain" linkIndex="9" dir="l" state="o"/>
    <connection from="edgeE_O" to="edgeS_I" fromLane="5" toLane="3" via=":juncMain_9_1" tl="juncMain" linkIndex="10" dir="l" state="o"/>
    <connection from="edgeE_O" to="edgeE_I" fromLane="5" toLane="5" via=":juncMain_11_0" tl="juncMain" linkIndex="11" dir="t" state="o"/>
    <connection from="edgeN_I" to="edgeN_O" fromLane="3" toLane="3" via=":juncN_0_0" dir="t" state="M"/>
    <connection from="edgeN_O" to="edgeW_I" fromLane="1" toLane="1" via=":juncMain_0_0" tl="juncMain" linkIndex="0" dir="r" state="o"/>
    <connection from="edgeN_O" to="edgeS_I" fromLane="1" toLane="1" via=":juncMain_1_0" tl="juncMain" linkIndex="1" dir="s" state="o"/>
    <connection from="edgeN_O" to="edgeS_I" fromLane="2" toLane="2" via=":juncMain_1_1" tl="juncMain" linkIndex="2" dir="s" state="o"/>
    <connection from="edgeN_O" to="edgeE_I" fromLane="3" toLane="5" via=":juncMain_3_0" tl="juncMain" linkIndex="3" dir="l" state="o"/>