<?xml version="1.0" encoding="UTF-8"?>

<!-- generated on 2021-10-09 23:39:41 by Eclipse SUMO netconvert Version 1.10.0
<configuration xmlns:xsi="http://www.w3.org/2001/XMLSchema-instance" xsi:noNamespaceSchemaLocation="http://sumo.dlr.de/xsd/netconvertConfiguration.xsd">

    <input>
        <node-files value="data/cross.nod.xml"/>
        <edge-files value="data/cross.edg.xml"/>
        <connection-files value="data/cross.con.xml"/>
    </input>

    <output>
        <output-file value="data/cross.net.xml"/>
    </output>

    <report>
        <aggregate-warnings value="5"/>
    </report>

</configuration>
-->

<net version="1.9" junctionCornerDetail="5" limitTurnSpeed="5.50" xmlns:xsi="http://www.w3.org/2001/XMLSchema-instance" xsi:noNamespaceSchemaLocation="http://sumo.dlr.de/xsd/net_file.xsd">

    <location netOffset="500.00,500.00" convBoundary="0.00,0.00,1000.00,1000.00" origBoundary="-500.00,-500.00,500.00,500.00" projParameter="!"/>

    <edge id=":juncE_0" function="internal">
        <lane id=":juncE_0_0" index="0" speed="3.65" length="4.67" shape="1000.00,498.40 1001.20,499.20 1001.60,500.00 1001.20,500.80 1000.00,501.60"/>
    </edge>
    <edge id=":juncMain_0" function="internal">
        <lane id=":juncMain_0_0" index="0" speed="6.51" length="9.03" shape="479.20,526.40 478.85,523.95 477.80,522.20 476.05,521.15 473.60,520.80"/>
        <lane id=":juncMain_0_1" index="1" speed="7.33" length="11.73" shape="479.20,526.40 478.85,522.55 477.80,519.80 476.05,518.15 473.60,517.60"/>
        <lane id=":juncMain_0_2" index="2" speed="7.33" length="11.73" shape="482.40,526.40 481.85,523.95 480.20,522.20 477.45,521.15 473.60,520.80"/>
        <lane id=":juncMain_0_3" index="3" speed="8.00" length="14.19" shape="482.40,526.40 481.85,522.55 480.20,519.80 477.45,518.15 473.60,517.60"/>
    </edge>
    <edge id=":juncMain_4" function="internal">
        <lane id=":juncMain_4_0" index="0" speed="15.00" length="52.80" shape="482.40,526.40 482.40,473.60"/>
        <lane id=":juncMain_4_1" index="1" speed="15.00" length="52.80" shape="485.60,526.40 485.60,473.60"/>
    </edge>
    <edge id=":juncMain_6" function="internal">
        <lane id=":juncMain_6_0" index="0" speed="15.00" length="58.26" shape="485.60,526.40 488.15,512.75 495.80,503.00 508.55,497.15 526.40,495.20"/>
        <lane id=":juncMain_6_1" index="1" speed="15.00" length="55.86" shape="485.60,526.40 488.15,514.15 495.80,505.40 508.55,500.15 526.40,498.40"/>
    </edge>
    <edge id=":juncMain_8" function="internal">
        <lane id=":juncMain_8_0" index="0" speed="15.00" length="52.80" shape="488.80,526.40 488.80,473.60"/>
    </edge>
    <edge id=":juncMain_9" function="internal">
        <lane id=":juncMain_9_0" index="0" speed="15.00" length="55.57" shape="488.80,526.40 491.15,512.75 498.20,503.00 509.95,497.15 526.40,495.20"/>
        <lane id=":juncMain_9_1" index="1" speed="15.00" length="53.12" shape="488.80,526.40 491.15,514.15 498.20,505.40 509.95,500.15 526.40,498.40"/>
    </edge>
    <edge id=":juncMain_11" function="internal">
        <lane id=":juncMain_11_0" index="0" speed="15.00" length="52.80" shape="492.00,526.40 492.00,473.60"/>
    </edge>
    <edge id=":juncMain_12" function="internal">
        <lane id=":juncMain_12_0" index="0" speed="15.00" length="52.92" shape="492.00,526.40 494.15,512.75 500.60,503.00 511.35,497.15 526.40,495.20"/>
        <lane id=":juncMain_12_1" index="1" speed="14.71" length="50.42" shape="492.00,526.40 494.15,514.15 500.60,505.40 511.35,500.15 526.40,498.40"/>
    </edge>
    <edge id=":juncMain_14" function="internal">
        <lane id=":juncMain_14_0" index="0" speed="15.00" length="52.80" shape="495.20,526.40 495.20,473.60"/>
    </edge>
    <edge id=":juncMain_15" function="internal">
        <lane id=":juncMain_15_0" index="0" speed="14.69" length="50.32" shape="495.20,526.40 497.15,512.75 503.00,503.00 512.75,497.15 526.40,495.20"/>
        <lane id=":juncMain_15_1" index="1" speed="14.32" length="47.77" shape="495.20,526.40 497.15,514.15 503.00,505.40 512.75,500.15 526.40,498.40"/>
    </edge>
    <edge id=":juncMain_17" function="internal">
        <lane id=":juncMain_17_0" index="0" speed="15.00" length="52.80" shape="498.40,526.40 498.40,473.60"/>
    </edge>
    <edge id=":juncMain_18" function="internal">
        <lane id=":juncMain_18_0" index="0" speed="14.32" length="47.77" shape="498.40,526.40 500.15,512.75 505.40,503.00 514.15,497.15 526.40,495.20"/>
        <lane id=":juncMain_18_1" index="1" speed="13.93" length="45.16" shape="498.40,526.40 500.15,514.15 505.40,505.40 514.15,500.15 526.40,498.40"/>
    </edge>
    <edge id=":juncMain_20" function="internal">
        <lane id=":juncMain_20_0" index="0" speed="3.65" length="2.34" shape="498.40,526.40 499.20,525.20 500.00,524.80"/>
    </edge>
    <edge id=":juncMain_84" function="internal">
        <lane id=":juncMain_84_0" index="0" speed="3.65" length="2.34" shape="500.00,524.80 500.80,525.20 501.60,526.40"/>
    </edge>
    <edge id=":juncMain_21" function="internal">
        <lane id=":juncMain_21_0" index="0" speed="6.51" length="9.03" shape="526.40,520.80 523.95,521.15 522.20,522.20 521.15,523.95 520.80,526.40"/>
        <lane id=":juncMain_21_1" index="1" speed="7.33" length="11.73" shape="526.40,520.80 522.55,521.15 519.80,522.20 518.15,523.95 517.60,526.40"/>
        <lane id=":juncMain_21_2" index="2" speed="7.33" length="11.73" shape="526.40,517.60 523.95,518.15 522.20,519.80 521.15,522.55 520.80,526.40"/>
        <lane id=":juncMain_21_3" index="3" speed="8.00" length="14.19" shape="526.40,517.60 522.55,518.15 519.80,519.80 518.15,522.55 517.60,526.40"/>
    </edge>
    <edge id=":juncMain_25" function="internal">
        <lane id=":juncMain_25_0" index="0" speed="15.00" length="52.80" shape="526.40,517.60 473.60,517.60"/>
        <lane id=":juncMain_25_1" index="1" speed="15.00" length="52.80" shape="526.40,514.40 473.60,514.40"/>
    </edge>
    <edge id=":juncMain_27" function="internal">
        <lane id=":juncMain_27_0" index="0" speed="15.00" length="58.26" shape="526.40,514.40 512.75,511.85 503.00,504.20 497.15,491.45 495.20,473.60"/>
        <lane id=":juncMain_27_1" index="1" speed="15.00" length="55.86" shape="526.40,514.40 514.15,511.85 505.40,504.20 500.15,491.45 498.40,473.60"/>
    </edge>
    <edge id=":juncMain_29" function="internal">
        <lane id=":juncMain_29_0" index="0" speed="15.00" length="52.80" shape="526.40,511.20 473.60,511.20"/>
    </edge>
    <edge id=":juncMain_30" function="internal">
        <lane id=":juncMain_30_0" index="0" speed="15.00" length="55.57" shape="526.40,511.20 512.75,508.85 503.00,501.80 497.15,490.05 495.20,473.60"/>
        <lane id=":juncMain_30_1" index="1" speed="15.00" length="53.12" shape="526.40,511.20 514.15,508.85 505.40,501.80 500.15,490.05 498.40,473.60"/>
    </edge>
    <edge id=":juncMain_32" function="internal">
        <lane id=":juncMain_32_0" index="0" speed="15.00" length="52.80" shape="526.40,508.00 473.60,508.00"/>
    </edge>
    <edge id=":juncMain_33" function="internal">
        <lane id=":juncMain_33_0" index="0" speed="15.00" length="52.92" shape="526.40,508.00 512.75,505.85 503.00,499.40 497.15,488.65 495.20,473.60"/>
        <lane id=":juncMain_33_1" index="1" speed="14.71" length="50.42" shape="526.40,508.00 514.15,505.85 505.40,499.40 500.15,488.65 498.40,473.60"/>
    </edge>
    <edge id=":juncMain_35" function="internal">
        <lane id=":juncMain_35_0" index="0" speed="15.00" length="52.80" shape="526.40,504.80 473.60,504.80"/>
    </edge>
    <edge id=":juncMain_36" function="internal">
        <lane id=":juncMain_36_0" index="0" speed="14.69" length="50.32" shape="526.40,504.80 512.75,502.85 503.00,497.00 497.15,487.25 495.20,473.60"/>
        <lane id=":juncMain_36_1" index="1" speed="14.32" length="47.77" shape="526.40,504.80 514.15,502.85 505.40,497.00 500.15,487.25 498.40,473.60"/>
    </edge>
    <edge id=":juncMain_38" function="internal">
        <lane id=":juncMain_38_0" index="0" speed="15.00" length="52.80" shape="526.40,501.60 473.60,501.60"/>
    </edge>
    <edge id=":juncMain_39" function="internal">
        <lane id=":juncMain_39_0" index="0" speed="14.32" length="47.77" shape="526.40,501.60 512.75,499.85 503.00,494.60 497.15,485.85 495.20,473.60"/>
        <lane id=":juncMain_39_1" index="1" speed="13.93" length="45.16" shape="526.40,501.60 514.15,499.85 505.40,494.60 500.15,485.85 498.40,473.60"/>
    </edge>
    <edge id=":juncMain_41" function="internal">
        <lane id=":juncMain_41_0" index="0" speed="3.65" length="2.34" shape="526.40,501.60 525.20,500.80 524.80,500.00"/>
    </edge>
    <edge id=":juncMain_85" function="internal">
        <lane id=":juncMain_85_0" index="0" speed="3.65" length="2.34" shape="524.80,500.00 525.20,499.20 526.40,498.40"/>
    </edge>
    <edge id=":juncMain_42" function="internal">
        <lane id=":juncMain_42_0" index="0" speed="6.51" length="9.03" shape="520.80,473.60 521.15,476.05 522.20,477.80 523.95,478.85 526.40,479.20"/>
        <lane id=":juncMain_42_1" index="1" speed="7.33" length="11.73" shape="520.80,473.60 521.15,477.45 522.20,480.20 523.95,481.85 526.40,482.40"/>
        <lane id=":juncMain_42_2" index="2" speed="7.33" length="11.73" shape="517.60,473.60 518.15,476.05 519.80,477.80 522.55,478.85 526.40,479.20"/>
        <lane id=":juncMain_42_3" index="3" speed="8.00" length="14.19" shape="517.60,473.60 518.15,477.45 519.80,480.20 522.55,481.85 526.40,482.40"/>
    </edge>
    <edge id=":juncMain_46" function="internal">
        <lane id=":juncMain_46_0" index="0" speed="15.00" length="52.80" shape="517.60,473.60 517.60,526.40"/>
        <lane id=":juncMain_46_1" index="1" speed="15.00" length="52.80" shape="514.40,473.60 514.40,526.40"/>
    </edge>
    <edge id=":juncMain_48" function="internal">
        <lane id=":juncMain_48_0" index="0" speed="15.00" length="58.26" shape="514.40,473.60 511.85,487.25 504.20,497.00 491.45,502.85 473.60,504.80"/>
        <lane id=":juncMain_48_1" index="1" speed="15.00" length="55.86" shape="514.40,473.60 511.85,485.85 504.20,494.60 491.45,499.85 473.60,501.60"/>
    </edge>
    <edge id=":juncMain_50" function="internal">
        <lane id=":juncMain_50_0" index="0" speed="15.00" length="52.80" shape="511.20,473.60 511.20,526.40"/>
    </edge>
    <edge id=":juncMain_51" function="internal">
        <lane id=":juncMain_51_0" index="0" speed="15.00" length="55.57" shape="511.20,473.60 508.85,487.25 501.80,497.00 490.05,502.85 473.60,504.80"/>
        <lane id=":juncMain_51_1" index="1" speed="15.00" length="53.12" shape="511.20,473.60 508.85,485.85 501.80,494.60 490.05,499.85 473.60,501.60"/>
    </edge>
    <edge id=":juncMain_53" function="internal">
        <lane id=":juncMain_53_0" index="0" speed="15.00" length="52.80" shape="508.00,473.60 508.00,526.40"/>
    </edge>
    <edge id=":juncMain_54" function="internal">
        <lane id=":juncMain_54_0" index="0" speed="15.00" length="52.92" shape="508.00,473.60 505.85,487.25 499.40,497.00 488.65,502.85 473.60,504.80"/>
        <lane id=":juncMain_54_1" index="1" speed="14.71" length="50.42" shape="508.00,473.60 505.85,485.85 499.40,494.60 488.65,499.85 473.60,501.60"/>
    </edge>
    <edge id=":juncMain_56" function="internal">
        <lane id=":juncMain_56_0" index="0" speed="15.00" length="52.80" shape="504.80,473.60 504.80,526.40"/>
    </edge>
    <edge id=":juncMain_57" function="internal">
        <lane id=":juncMain_57_0" index="0" speed="14.69" length="50.32" shape="504.80,473.60 502.85,487.25 497.00,497.00 487.25,502.85 473.60,504.80"/>
        <lane id=":juncMain_57_1" index="1" speed="14.32" length="47.77" shape="504.80,473.60 502.85,485.85 497.00,494.60 487.25,499.85 473.60,501.60"/>
    </edge>
    <edge id=":juncMain_59" function="internal">
        <lane id=":juncMain_59_0" index="0" speed="15.00" length="52.80" shape="501.60,473.60 501.60,526.40"/>
    </edge>
    <edge id=":juncMain_60" function="internal">
        <lane id=":juncMain_60_0" index="0" speed="14.32" length="47.77" shape="501.60,473.60 499.85,487.25 494.60,497.00 485.85,502.85 473.60,504.80"/>
        <lane id=":juncMain_60_1" index="1" speed="13.93" length="45.16" shape="501.60,473.60 499.85,485.85 494.60,494.60 485.85,499.85 473.60,501.60"/>
    </edge>
    <edge id=":juncMain_62" function="internal">
        <lane id=":juncMain_62_0" index="0" speed="3.65" length="2.34" shape="501.60,473.60 500.80,474.80 500.00,475.20"/>
    </edge>
    <edge id=":juncMain_86" function="internal">
        <lane id=":juncMain_86_0" index="0" speed="3.65" length="2.34" shape="500.00,475.20 499.20,474.80 498.40,473.60"/>
    </edge>
    <edge id=":juncMain_63" function="internal">
        <lane id=":juncMain_63_0" index="0" speed="6.51" length="9.03" shape="473.60,479.20 476.05,478.85 477.80,477.80 478.85,476.05 479.20,473.60"/>
        <lane id=":juncMain_63_1" index="1" speed="7.33" length="11.73" shape="473.60,479.20 477.45,478.85 480.20,477.80 481.85,476.05 482.40,473.60"/>
        <lane id=":juncMain_63_2" index="2" speed="7.33" length="11.73" shape="473.60,482.40 476.05,481.85 477.80,480.20 478.85,477.45 479.20,473.60"/>
        <lane id=":juncMain_63_3" index="3" speed="8.00" length="14.19" shape="473.60,482.40 477.45,481.85 480.20,480.20 481.85,477.45 482.40,473.60"/>
    </edge>
    <edge id=":juncMain_67" function="internal">
        <lane id=":juncMain_67_0" index="0" speed="15.00" length="52.80" shape="473.60,482.40 526.40,482.40"/>
        <lane id=":juncMain_67_1" index="1" speed="15.00" length="52.80" shape="473.60,485.60 526.40,485.60"/>
    </edge>
    <edge id=":juncMain_69" function="internal">
        <lane id=":juncMain_69_0" index="0" speed="15.00" length="58.26" shape="473.60,485.60 487.25,488.15 497.00,495.80 502.85,508.55 504.80,526.40"/>
        <lane id=":juncMain_69_1" index="1" speed="15.00" length="55.86" shape="473.60,485.60 485.85,488.15 494.60,495.80 499.85,508.55 501.60,526.40"/>
    </edge>
    <edge id=":juncMain_71" function="internal">
        <lane id=":juncMain_71_0" index="0" speed="15.00" length="52.80" shape="473.60,488.80 526.40,488.80"/>
    </edge>
    <edge id=":juncMain_72" function="internal">
        <lane id=":juncMain_72_0" index="0" speed="15.00" length="55.57" shape="473.60,488.80 487.25,491.15 497.00,498.20 502.85,509.95 504.80,526.40"/>
        <lane id=":juncMain_72_1" index="1" speed="15.00" length="53.12" shape="473.60,488.80 485.85,491.15 494.60,498.20 499.85,509.95 501.60,526.40"/>
    </edge>
    <edge id=":juncMain_74" function="internal">
        <lane id=":juncMain_74_0" index="0" speed="15.00" length="52.80" shape="473.60,492.00 526.40,492.00"/>
    </edge>
    <edge id=":juncMain_75" function="internal">
        <lane id=":juncMain_75_0" index="0" speed="15.00" length="52.92" shape="473.60,492.00 487.25,494.15 497.00,500.60 502.85,511.35 504.80,526.40"/>
        <lane id=":juncMain_75_1" index="1" speed="14.71" length="50.42" shape="473.60,492.00 485.85,494.15 494.60,500.60 499.85,511.35 501.60,526.40"/>
    </edge>
    <edge id=":juncMain_77" function="internal">
        <lane id=":juncMain_77_0" index="0" speed="15.00" length="52.80" shape="473.60,495.20 526.40,495.20"/>
    </edge>
    <edge id=":juncMain_78" function="internal">
        <lane id=":juncMain_78_0" index="0" speed="14.69" length="50.32" shape="473.60,495.20 487.25,497.15 497.00,503.00 502.85,512.75 504.80,526.40"/>
        <lane id=":juncMain_78_1" index="1" speed="14.32" length="47.77" shape="473.60,495.20 485.85,497.15 494.60,503.00 499.85,512.75 501.60,526.40"/>
    </edge>
    <edge id=":juncMain_80" function="internal">
        <lane id=":juncMain_80_0" index="0" speed="15.00" length="52.80" shape="473.60,498.40 526.40,498.40"/>
    </edge>
    <edge id=":juncMain_81" function="internal">
        <lane id=":juncMain_81_0" index="0" speed="14.32" length="47.77" shape="473.60,498.40 487.25,500.15 497.00,505.40 502.85,514.15 504.80,526.40"/>
        <lane id=":juncMain_81_1" index="1" speed="13.93" length="45.16" shape="473.60,498.40 485.85,500.15 494.60,505.40 499.85,514.15 501.60,526.40"/>
    </edge>
    <edge id=":juncMain_83" function="internal">
        <lane id=":juncMain_83_0" index="0" speed="3.65" length="2.34" shape="473.60,498.40 474.80,499.20 475.20,500.00"/>
    </edge>
    <edge id=":juncMain_87" function="internal">
        <lane id=":juncMain_87_0" index="0" speed="3.65" length="2.34" shape="475.20,500.00 474.80,500.80 473.60,501.60"/>
    </edge>
    <edge id=":juncN_0" function="internal">
        <lane id=":juncN_0_0" index="0" speed="3.65" length="4.67" shape="501.60,1000.00 500.80,1001.20 500.00,1001.60 499.20,1001.20 498.40,1000.00"/>
    </edge>
    <edge id=":juncS_0" function="internal">
        <lane id=":juncS_0_0" index="0" speed="3.65" length="4.67" shape="498.40,0.00 499.20,-1.20 500.00,-1.60 500.80,-1.20 501.60,0.00"/>
    </edge>
    <edge id=":juncW_0" function="internal">
        <lane id=":juncW_0_0" index="0" speed="3.65" length="4.67" shape="0.00,501.60 -1.20,500.80 -1.60,500.00 -1.20,499.20 0.00,498.40"/>
    </edge>

    <edge id="edgeE_I" from="juncMain" to="juncE" priority="46">
        <lane id="edgeE_I_0" index="0" speed="11.00" length="473.60" shape="526.40,479.20 1000.00,479.20"/>
        <lane id="edgeE_I_1" index="1" speed="11.00" length="473.60" shape="526.40,482.40 1000.00,482.40"/>
        <lane id="edgeE_I_2" index="2" speed="11.00" length="473.60" shape="526.40,485.60 1000.00,485.60"/>
        <lane id="edgeE_I_3" index="3" speed="11.00" length="473.60" shape="526.40,488.80 1000.00,488.80"/>
        <lane id="edgeE_I_4" index="4" speed="11.00" length="473.60" shape="526.40,492.00 1000.00,492.00"/>
        <lane id="edgeE_I_5" index="5" speed="11.00" length="473.60" shape="526.40,495.20 1000.00,495.20"/>
        <lane id="edgeE_I_6" index="6" speed="11.00" length="473.60" shape="526.40,498.40 1000.00,498.40"/>
    </edge>
    <edge id="edgeE_O" from="juncE" to="juncMain" priority="78">
        <lane id="edgeE_O_0" index="0" speed="19.00" length="473.60" shape="1000.00,520.80 526.40,520.80"/>
        <lane id="edgeE_O_1" index="1" speed="19.00" length="473.60" shape="1000.00,517.60 526.40,517.60"/>
        <lane id="edgeE_O_2" index="2" speed="19.00" length="473.60" shape="1000.00,514.40 526.40,514.40"/>
        <lane id="edgeE_O_3" index="3" speed="19.00" length="473.60" shape="1000.00,511.20 526.40,511.20"/>
        <lane id="edgeE_O_4" index="4" speed="19.00" length="473.60" shape="1000.00,508.00 526.40,508.00"/>
        <lane id="edgeE_O_5" index="5" speed="19.00" length="473.60" shape="1000.00,504.80 526.40,504.80"/>
        <lane id="edgeE_O_6" index="6" speed="19.00" length="473.60" shape="1000.00,501.60 526.40,501.60"/>
    </edge>
    <edge id="edgeN_I" from="juncMain" to="juncN" priority="46">
        <lane id="edgeN_I_0" index="0" speed="11.00" length="473.60" shape="520.80,526.40 520.80,1000.00"/>
        <lane id="edgeN_I_1" index="1" speed="11.00" length="473.60" shape="517.60,526.40 517.60,1000.00"/>
        <lane id="edgeN_I_2" index="2" speed="11.00" length="473.60" shape="514.40,526.40 514.40,1000.00"/>
        <lane id="edgeN_I_3" index="3" speed="11.00" length="473.60" shape="511.20,526.40 511.20,1000.00"/>
        <lane id="edgeN_I_4" index="4" speed="11.00" length="473.60" shape="508.00,526.40 508.00,1000.00"/>
        <lane id="edgeN_I_5" index="5" speed="11.00" length="473.60" shape="504.80,526.40 504.80,1000.00"/>
        <lane id="edgeN_I_6" index="6" speed="11.00" length="473.60" shape="501.60,526.40 501.60,1000.00"/>
    </edge>
    <edge id="edgeN_O" from="juncN" to="juncMain" priority="78">
        <lane id="edgeN_O_0" index="0" speed="19.00" length="473.60" shape="479.20,1000.00 479.20,526.40"/>
        <lane id="edgeN_O_1" index="1" speed="19.00" length="473.60" shape="482.40,1000.00 482.40,526.40"/>
        <lane id="edgeN_O_2" index="2" speed="19.00" length="473.60" shape="485.60,1000.00 485.60,526.40"/>
        <lane id="edgeN_O_3" index="3" speed="19.00" length="473.60" shape="488.80,1000.00 488.80,526.40"/>
        <lane id="edgeN_O_4" index="4" speed="19.00" length="473.60" shape="492.00,1000.00 492.00,526.40"/>
        <lane id="edgeN_O_5" index="5" speed="19.00" length="473.60" shape="495.20,1000.00 495.20,526.40"/>
        <lane id="edgeN_O_6" index="6" speed="19.00" length="473.60" shape="498.40,1000.00 498.40,526.40"/>
    </edge>
    <edge id="edgeS_I" from="juncMain" to="juncS" priority="46">
        <lane id="edgeS_I_0" index="0" speed="11.00" length="473.60" shape="479.20,473.60 479.20,0.00"/>
        <lane id="edgeS_I_1" index="1" speed="11.00" length="473.60" shape="482.40,473.60 482.40,0.00"/>
        <lane id="edgeS_I_2" index="2" speed="11.00" length="473.60" shape="485.60,473.60 485.60,0.00"/>
        <lane id="edgeS_I_3" index="3" speed="11.00" length="473.60" shape="488.80,473.60 488.80,0.00"/>
        <lane id="edgeS_I_4" index="4" speed="11.00" length="473.60" shape="492.00,473.60 492.00,0.00"/>
        <lane id="edgeS_I_5" index="5" speed="11.00" length="473.60" shape="495.20,473.60 495.20,0.00"/>
        <lane id="edgeS_I_6" index="6" speed="11.00" length="473.60" shape="498.40,473.60 498.40,0.00"/>
    </edge>
    <edge id="edgeS_O" from="juncS" to="juncMain" priority="78">
        <lane id="edgeS_O_0" index="0" speed="19.00" length="473.60" shape="520.80,0.00 520.80,473.60"/>
        <lane id="edgeS_O_1" index="1" speed="19.00" length="473.60" shape="517.60,0.00 517.60,473.60"/>
        <lane id="edgeS_O_2" index="2" speed="19.00" length="473.60" shape="514.40,0.00 514.40,473.60"/>
        <lane id="edgeS_O_3" index="3" speed="19.00" length="473.60" shape="511.20,0.00 511.20,473.60"/>
        <lane id="edgeS_O_4" index="4" speed="19.00" length="473.60" shape="508.00,0.00 508.00,473.60"/>
        <lane id="edgeS_O_5" index="5" speed="19.00" length="473.60" shape="504.80,0.00 504.80,473.60"/>
        <lane id="edgeS_O_6" index="6" speed="19.00" length="473.60" shape="501.60,0.00 501.60,473.60"/>
    </edge>
    <edge id="edgeW_I" from="juncMain" to="juncW" priority="46">
        <lane id="edgeW_I_0" index="0" speed="11.00" length="473.60" shape="473.60,520.80 0.00,520.80"/>
        <lane id="edgeW_I_1" index="1" speed="11.00" length="473.60" shape="473.60,517.60 0.00,517.60"/>
        <lane id="edgeW_I_2" index="2" speed="11.00" length="473.60" shape="473.60,514.40 0.00,514.40"/>
        <lane id="edgeW_I_3" index="3" speed="11.00" length="473.60" shape="473.60,511.20 0.00,511.20"/>
        <lane id="edgeW_I_4" index="4" speed="11.00" length="473.60" shape="473.60,508.00 0.00,508.00"/>
        <lane id="edgeW_I_5" index="5" speed="11.00" length="473.60" shape="473.60,504.80 0.00,504.80"/>
        <lane id="edgeW_I_6" index="6" speed="11.00" length="473.60" shape="473.60,501.60 0.00,501.60"/>
    </edge>
    <edge id="edgeW_O" from="juncW" to="juncMain" priority="78">
        <lane id="edgeW_O_0" index="0" speed="19.00" length="473.60" shape="0.00,479.20 473.60,479.20"/>
        <lane id="edgeW_O_1" index="1" speed="19.00" length="473.60" shape="0.00,482.40 473.60,482.40"/>
        <lane id="edgeW_O_2" index="2" speed="19.00" length="473.60" shape="0.00,485.60 473.60,485.60"/>
        <lane id="edgeW_O_3" index="3" speed="19.00" length="473.60" shape="0.00,488.80 473.60,488.80"/>
        <lane id="edgeW_O_4" index="4" speed="19.00" length="473.60" shape="0.00,492.00 473.60,492.00"/>
        <lane id="edgeW_O_5" index="5" speed="19.00" length="473.60" shape="0.00,495.20 473.60,495.20"/>
        <lane id="edgeW_O_6" index="6" speed="19.00" length="473.60" shape="0.00,498.40 473.60,498.40"/>
    </edge>

    <tlLogic id="juncMain" type="static" programID="0" offset="0">
        <phase duration="17" state="rrrrrrrrrrrrrrrrrrrrrrrrrrrrrrrrrrrrrrrrrrGGggGGggGggGggGggGGGgGGggrrrrrrrrrrrrrrrrr"/>
        <phase duration="4"  state="rrrrrrrrrrrrrrrrrrrrrrrrrrrrrrrrrrrrrrrrrryyyyyyyyyyyyyyyyyyyyyyyyyrrrrrrrrrrrrrrrrr"/>
        <phase duration="19" state="GGggrrrrrrrrrrrrrrrrrrrrrrrrrrrrrrrrrrrrrrrrrrrrrrrrrrrrrrrrrrrGGggGGggGggGggGggGGGg"/>
        <phase duration="4"  state="yyyyrrrrrrrrrrrrrrrrrrrrrrrrrrrrrrrrrrrrrrrrrrrrrrrrrrrrrrrrrrryyyyyyyyyyyyyyyyyyyyy"/>
        <phase duration="19" state="GGggGGggGggGggGggGGGgGGggrrrrrrrrrrrrrrrrrrrrrrrrrrrrrrrrrrrrrrrrrrrrrrrrrrrrrrrrrrr"/>
        <phase duration="4"  state="yyyyyyyyyyyyyyyyyyyyyyyyyrrrrrrrrrrrrrrrrrrrrrrrrrrrrrrrrrrrrrrrrrrrrrrrrrrrrrrrrrrr"/>
        <phase duration="19" state="rrrrrrrrrrrrrrrrrrrrrGGggGGggGggGggGggGGGgGGggrrrrrrrrrrrrrrrrrrrrrrrrrrrrrrrrrrrrrr"/>
        <phase duration="4"  state="rrrrrrrrrrrrrrrrrrrrryyyyyyyyyyyyyyyyyyyyyyyyyrrrrrrrrrrrrrrrrrrrrrrrrrrrrrrrrrrrrrr"/>
    </tlLogic>

    <junction id="juncE" type="priority" x="1000.00" y="500.00" incLanes="edgeE_I_0 edgeE_I_1 edgeE_I_2 edgeE_I_3 edgeE_I_4 edgeE_I_5 edgeE_I_6" intLanes=":juncE_0_0" shape="1000.00,500.00 1000.00,477.60 1000.00,500.00">
        <request index="0" response="0" foes="0" cont="0"/>
    </junction>
    <junction id="juncMain" type="traffic_light" x="500.00" y="500.00" incLanes="edgeN_O_0 edgeN_O_1 edgeN_O_2 edgeN_O_3 edgeN_O_4 edgeN_O_5 edgeN_O_6 edgeE_O_0 edgeE_O_1 edgeE_O_2 edgeE_O_3 edgeE_O_4 edgeE_O_5 edgeE_O_6 edgeS_O_0 edgeS_O_1 edgeS_O_2 edgeS_O_3 edgeS_O_4 edgeS_O_5 edgeS_O_6 edgeW_O_0 edgeW_O_1 edgeW_O_2 edgeW_O_3 edgeW_O_4 edgeW_O_5 edgeW_O_6" intLanes=":juncMain_0_0 :juncMain_0_1 :juncMain_0_2 :juncMain_0_3 :juncMain_4_0 :juncMain_4_1 :juncMain_6_0 :juncMain_6_1 :juncMain_8_0 :juncMain_9_0 :juncMain_9_1 :juncMain_11_0 :juncMain_12_0 :juncMain_12_1 :juncMain_14_0 :juncMain_15_0 :juncMain_15_1 :juncMain_17_0 :juncMain_18_0 :juncMain_18_1 :juncMain_84_0 :juncMain_21_0 :juncMain_21_1 :juncMain_21_2 :juncMain_21_3 :juncMain_25_0 :juncMain_25_1 :juncMain_27_0 :juncMain_27_1 :juncMain_29_0 :juncMain_30_0 :juncMain_30_1 :juncMain_32_0 :juncMain_33_0 :juncMain_33_1 :juncMain_35_0 :juncMain_36_0 :juncMain_36_1 :juncMain_38_0 :juncMain_39_0 :juncMain_39_1 :juncMain_85_0 :juncMain_42_0 :juncMain_42_1 :juncMain_42_2 :juncMain_42_3 :juncMain_46_0 :juncMain_46_1 :juncMain_48_0 :juncMain_48_1 :juncMain_50_0 :juncMain_51_0 :juncMain_51_1 :juncMain_53_0 :juncMain_54_0 :juncMain_54_1 :juncMain_56_0 :juncMain_57_0 :juncMain_57_1 :juncMain_59_0 :juncMain_60_0 :juncMain_60_1 :juncMain_86_0 :juncMain_63_0 :juncMain_63_1 :juncMain_63_2 :juncMain_63_3 :juncMain_67_0 :juncMain_67_1 :juncMain_69_0 :juncMain_69_1 :juncMain_71_0 :juncMain_72_0 :juncMain_72_1 :juncMain_74_0 :juncMain_75_0 :juncMain_75_1 :juncMain_77_0 :juncMain_78_0 :juncMain_78_1 :juncMain_80_0 :juncMain_81_0 :juncMain_81_1 :juncMain_87_0" shape="477.60,526.40 522.40,526.40 522.84,524.18 523.40,523.40 524.18,522.84 525.18,522.51 526.40,522.40 526.40,477.60 524.18,477.16 523.40,476.60 522.84,475.82 522.51,474.82 522.40,473.60 477.60,473.60 477.16,475.82 476.60,476.60 475.82,477.16 474.82,477.49 473.60,477.60 473.60,522.40 475.82,522.84 476.60,523.40 477.16,524.18 477.49,525.18">
        <request index="0"  response="000000000000000000000000000000000000000000000000000000000000000000000000000000000000" foes="000000000000000000000000000000000000000000000100100100100110000000000000000000000100" cont="0"/>
        <request index="1"  response="000000000000000000000000000000000000000000000000000000000000000000000000000000000000" foes="000000000000000000000000000000000000000000000100100100100110000000000000000000001000" cont="0"/>
        <request index="2"  response="000000000000000000000000000000000000000000000000000000000000000000000000000000000001" foes="000000000000000000000000000000000000000000000100100100100110000000000000000000000001" cont="0"/>
        <request index="3"  response="000000000000000000000000000000000000000000000000000000000000000000000000000000000010" foes="000000000000000000000000000000000000000000000100100100100110000000000000000000000010" cont="0"/>
        <request index="4"  response="000000000000000000000000000000000000000000000000000000000000000000000000000000000000" foes="011111111111111111111111011011011011000000011111111111111110000000000000000000000000" cont="0"/>
        <request index="5"  response="000000000000000000000000000000000000000000000000000000000000000000000000000000000000" foes="011111111111111111111111011011011011000000011111111111111110000000000000000000000000" cont="0"/>
        <request index="6"  response="000000000000000000000000100100100100110000000000000000000000000001101101101100000000" foes="011111111111111110000000100100100100110000111111111111111110000001101101101100000000" cont="0"/>
        <request index="7"  response="000000000000000000000000100100100100110000000000000000000000000010110110110100000000" foes="011111111111111110000000100100100100110000111111111111111110000010110110110100000000" cont="0"/>
        <request index="8"  response="000000000000000000000000000000000000000000000000000000000000000000000000000000000000" foes="011111111111111111111111011011011011000000011111111111111110000000000000000011000000" cont="0"/>
        <request index="9"  response="000000000000000000000000100100100100110000000000000000000000000001101101100000000000" foes="011111111111111110000000100100100100110000111111111111111110000001101101100001000000" cont="0"/>
        <request index="10" response="000000000000000000000000100100100100110000000000000000000000000010110110100000000000" foes="011111111111111110000000100100100100110000111111111111111110000010110110100010000000" cont="0"/>
        <request index="11" response="000000000000000000000000000000000000000000000000000000000000000000000000000000000000" foes="011111111111111111111111011011011011000000011111111111111110000000000000011011000000" cont="0"/>
        <request index="12" response="000000000000000000000000100100100100110000000000000000000000000001101100000000000000" foes="011111111111111110000000100100100100110000111111111111111110000001101100001001000000" cont="0"/>