<?xml version="1.0" encoding="UTF-8"?>

<!-- generated on 2021-10-18 00:11:06 by Eclipse SUMO netconvert Version 1.10.0
<configuration xmlns:xsi="http://www.w3.org/2001/XMLSchema-instance" xsi:noNamespaceSchemaLocation="http://sumo.dlr.de/xsd/netconvertConfiguration.xsd">

    <input>
        <node-files value="data/cross.nod.xml"/>
        <edge-files value="data/cross.edg.xml"/>
        <connection-files value="data/cross.con.xml"/>
    </input>

    <output>
        <output-file value="data/cross.net.xml"/>
    </output>

    <junctions>
        <no-turnarounds.except-turnlane value="true"/>
    </junctions>

    <report>
        <aggregate-warnings value="5"/>
    </report>

</configuration>
-->

<net version="1.9" junctionCornerDetail="5" limitTurnSpeed="5.50" xmlns:xsi="http://www.w3.org/2001/XMLSchema-instance" xsi:noNamespaceSchemaLocation="http://sumo.dlr.de/xsd/net_file.xsd">

    <location netOffset="500.00,500.00" convBoundary="0.00,0.00,1000.00,1000.00" origBoundary="-500.00,-500.00,500.00,500.00" projParameter="!"/>

    <edge id=":juncE_0" function="internal">
        <lane id=":juncE_0_0" index="0" disallow="pedestrian" speed="3.65" length="4.67" shape="1000.00,498.40 1001.20,499.20 1001.60,500.00 1001.20,500.80 1000.00,501.60"/>
    </edge>
    <edge id=":juncE_w0" function="walkingarea">
        <lane id=":juncE_w0_0" index="0" allow="pedestrian" speed="1.00" length="144.00" width="3.20" shape="1000.00,570.40 1000.00,573.60 1000.00,426.40 1000.00,429.60"/>
    </edge>
    <edge id=":juncMain_0" function="internal">
        <lane id=":juncMain_0_0" index="0" allow="pedestrian" speed="15.00" length="150.20" shape="428.00,575.10 428.00,424.90"/>
    </edge>
    <edge id=":juncMain_1" function="internal">
        <lane id=":juncMain_1_0" index="0" disallow="pedestrian" speed="6.86" length="5.08" shape="431.20,575.10 430.81,572.34 429.62,570.38"/>
        <lane id=":juncMain_1_1" index="1" disallow="pedestrian" speed="7.64" length="7.37" shape="431.20,575.10 430.81,570.94 429.62,567.98"/>
    </edge>
    <edge id=":juncMain_3" function="internal">
        <lane id=":juncMain_3_0" index="0" disallow="pedestrian" speed="15.00" length="150.20" shape="431.20,575.10 431.20,424.90"/>
        <lane id=":juncMain_3_1" index="1" disallow="pedestrian" speed="15.00" length="150.20" shape="434.40,575.10 434.40,424.90"/>
        <lane id=":juncMain_3_2" index="2" disallow="pedestrian" speed="15.00" length="150.20" shape="437.60,575.10 437.60,424.90"/>
        <lane id=":juncMain_3_3" index="3" disallow="pedestrian" speed="15.00" length="150.20" shape="440.80,575.10 440.80,424.90"/>
        <lane id=":juncMain_3_4" index="4" disallow="pedestrian" speed="15.00" length="150.20" shape="444.00,575.10 444.00,424.90"/>
        <lane id=":juncMain_3_5" index="5" disallow="pedestrian" speed="15.00" length="150.20" shape="447.20,575.10 447.20,424.90"/>
        <lane id=":juncMain_3_6" index="6" disallow="pedestrian" speed="15.00" length="150.20" shape="450.40,575.10 450.40,424.90"/>
        <lane id=":juncMain_3_7" index="7" disallow="pedestrian" speed="15.00" length="150.20" shape="453.60,575.10 453.60,424.90"/>
        <lane id=":juncMain_3_8" index="8" disallow="pedestrian" speed="15.00" length="150.20" shape="456.80,575.10 456.80,424.90"/>
        <lane id=":juncMain_3_9" index="9" disallow="pedestrian" speed="15.00" length="150.20" shape="460.00,575.10 460.00,424.90"/>
        <lane id=":juncMain_3_10" index="10" disallow="pedestrian" speed="15.00" length="150.20" shape="463.20,575.10 463.20,424.90"/>
        <lane id=":juncMain_3_11" index="11" disallow="pedestrian" speed="15.00" length="150.20" shape="466.40,575.10 466.40,424.90"/>
        <lane id=":juncMain_3_12" index="12" disallow="pedestrian" speed="15.00" length="150.20" shape="469.60,575.10 469.60,424.90"/>
        <lane id=":juncMain_3_13" index="13" disallow="pedestrian" speed="15.00" length="150.20" shape="472.80,575.10 472.80,424.90"/>
        <lane id=":juncMain_3_14" index="14" disallow="pedestrian" speed="15.00" length="150.20" shape="476.00,575.10 476.00,424.90"/>
        <lane id=":juncMain_3_15" index="15" disallow="pedestrian" speed="15.00" length="150.20" shape="479.20,575.10 479.20,424.90"/>
        <lane id=":juncMain_3_16" index="16" disallow="pedestrian" speed="15.00" length="150.20" shape="482.40,575.10 482.40,424.90"/>
        <lane id=":juncMain_3_17" index="17" disallow="pedestrian" speed="15.00" length="150.20" shape="485.60,575.10 485.60,424.90"/>
        <lane id=":juncMain_3_18" index="18" disallow="pedestrian" speed="15.00" length="150.20" shape="488.80,575.10 488.80,424.90"/>
        <lane id=":juncMain_3_19" index="19" disallow="pedestrian" speed="15.00" length="150.20" shape="492.00,575.10 492.00,424.90"/>
        <lane id=":juncMain_3_20" index="20" disallow="pedestrian" speed="15.00" length="150.20" shape="495.20,575.10 495.20,424.90"/>
        <lane id=":juncMain_3_21" index="21" disallow="pedestrian" speed="15.00" length="150.20" shape="498.40,575.10 498.40,424.90"/>
    </edge>
    <edge id=":juncMain_25" function="internal">
        <lane id=":juncMain_25_0" index="0" disallow="pedestrian" speed="15.00" length="11.78" shape="498.40,575.10 500.00,563.43"/>
        <lane id=":juncMain_25_1" index="1" disallow="pedestrian" speed="15.00" length="11.31" shape="498.40,575.10 500.00,563.90"/>
    </edge>
    <edge id=":juncMain_27" function="internal">
        <lane id=":juncMain_27_0" index="0" disallow="pedestrian" speed="3.65" length="2.34" shape="498.40,575.10 499.20,573.90 500.00,573.50"/>
    </edge>
    <edge id=":juncMain_109" function="internal">
        <lane id=":juncMain_109_0" index="0" disallow="pedestrian" speed="6.86" length="5.08" shape="429.62,570.38 427.66,569.19 424.90,568.80"/>
    </edge>
    <edge id=":juncMain_110" function="internal">
        <lane id=":juncMain_110_0" index="0" disallow="pedestrian" speed="7.64" length="5.47" shape="429.62,567.98 427.66,566.19 424.90,565.60"/>
    </edge>
    <edge id=":juncMain_111" function="internal">
        <lane id=":juncMain_111_0" index="0" disallow="pedestrian" speed="15.00" length="114.51" shape="500.00,563.43 503.19,540.14 517.57,515.17 541.54,500.19 575.10,495.20"/>
    </edge>
    <edge id=":juncMain_112" function="internal">
        <lane id=":juncMain_112_0" index="0" disallow="pedestrian" speed="15.00" length="112.38" shape="500.00,563.90 503.19,541.54 517.57,517.58 541.54,503.19 575.10,498.40"/>
    </edge>
    <edge id=":juncMain_113" function="internal">
        <lane id=":juncMain_113_0" index="0" disallow="pedestrian" speed="3.65" length="2.34" shape="500.00,573.50 500.80,573.90 501.60,575.10"/>
    </edge>
    <edge id=":juncMain_28" function="internal">
        <lane id=":juncMain_28_0" index="0" disallow="pedestrian" speed="6.86" length="5.93" shape="575.10,568.80 572.34,569.19 570.38,570.38 569.94,571.10"/>
        <lane id=":juncMain_28_1" index="1" disallow="pedestrian" speed="7.64" length="8.35" shape="575.10,568.80 570.94,569.19 567.98,570.38 567.32,571.10"/>
    </edge>
    <edge id=":juncMain_30" function="internal">
        <lane id=":juncMain_30_0" index="0" disallow="pedestrian" speed="15.00" length="150.20" shape="575.10,568.80 424.90,568.80"/>
        <lane id=":juncMain_30_1" index="1" disallow="pedestrian" speed="15.00" length="150.20" shape="575.10,565.60 424.90,565.60"/>
        <lane id=":juncMain_30_2" index="2" disallow="pedestrian" speed="15.00" length="150.20" shape="575.10,562.40 424.90,562.40"/>
        <lane id=":juncMain_30_3" index="3" disallow="pedestrian" speed="15.00" length="150.20" shape="575.10,559.20 424.90,559.20"/>
        <lane id=":juncMain_30_4" index="4" disallow="pedestrian" speed="15.00" length="150.20" shape="575.10,556.00 424.90,556.00"/>
        <lane id=":juncMain_30_5" index="5" disallow="pedestrian" speed="15.00" length="150.20" shape="575.10,552.80 424.90,552.80"/>
        <lane id=":juncMain_30_6" index="6" disallow="pedestrian" speed="15.00" length="150.20" shape="575.10,549.60 424.90,549.60"/>
        <lane id=":juncMain_30_7" index="7" disallow="pedestrian" speed="15.00" length="150.20" shape="575.10,546.40 424.90,546.40"/>
        <lane id=":juncMain_30_8" index="8" disallow="pedestrian" speed="15.00" length="150.20" shape="575.10,543.20 424.90,543.20"/>
        <lane id=":juncMain_30_9" index="9" disallow="pedestrian" speed="15.00" length="150.20" shape="575.10,540.00 424.90,540.00"/>
        <lane id=":juncMain_30_10" index="10" disallow="pedestrian" speed="15.00" length="150.20" shape="575.10,536.80 424.90,536.80"/>
        <lane id=":juncMain_30_11" index="11" disallow="pedestrian" speed="15.00" length="150.20" shape="575.10,533.60 424.90,533.60"/>
        <lane id=":juncMain_30_12" index="12" disallow="pedestrian" speed="15.00" length="150.20" shape="575.10,530.40 424.90,530.40"/>
        <lane id=":juncMain_30_13" index="13" disallow="pedestrian" speed="15.00" length="150.20" shape="575.10,527.20 424.90,527.20"/>
        <lane id=":juncMain_30_14" index="14" disallow="pedestrian" speed="15.00" length="150.20" shape="575.10,524.00 424.90,524.00"/>
        <lane id=":juncMain_30_15" index="15" disallow="pedestrian" speed="15.00" length="150.20" shape="575.10,520.80 424.90,520.80"/>
        <lane id=":juncMain_30_16" index="16" disallow="pedestrian" speed="15.00" length="150.20" shape="575.10,517.60 424.90,517.60"/>
        <lane id=":juncMain_30_17" index="17" disallow="pedestrian" speed="15.00" length="150.20" shape="575.10,514.40 424.90,514.40"/>
        <lane id=":juncMain_30_18" index="18" disallow="pedestrian" speed="15.00" length="150.20" shape="575.10,511.20 424.90,511.20"/>
        <lane id=":juncMain_30_19" index="19" disallow="pedestrian" speed="15.00" length="150.20" shape="575.10,508.00 424.90,508.00"/>
        <lane id=":juncMain_30_20" index="20" disallow="pedestrian" speed="15.00" length="150.20" shape="575.10,504.80 424.90,504.80"/>
        <lane id=":juncMain_30_21" index="21" disallow="pedestrian" speed="15.00" length="150.20" shape="575.10,501.60 424.90,501.60"/>
    </edge>
    <edge id=":juncMain_52" function="internal">
        <lane id=":juncMain_52_0" index="0" disallow="pedestrian" speed="15.00" length="11.78" shape="575.10,501.60 563.43,500.00"/>
        <lane id=":juncMain_52_1" index="1" disallow="pedestrian" speed="15.00" length="11.31" shape="575.10,501.60 563.90,500.00"/>
    </edge>
    <edge id=":juncMain_54" function="internal">
        <lane id=":juncMain_54_0" index="0" disallow="pedestrian" speed="3.65" length="2.34" shape="575.10,501.60 573.90,500.80 573.50,500.00"/>
    </edge>
    <edge id=":juncMain_114" function="internal">
        <lane id=":juncMain_114_0" index="0" disallow="pedestrian" speed="6.86" length="4.23" shape="569.94,571.10 569.19,572.34 568.80,575.10"/>
    </edge>
    <edge id=":juncMain_115" function="internal">
        <lane id=":juncMain_115_0" index="0" disallow="pedestrian" speed="7.64" length="4.50" shape="567.32,571.10 566.19,572.34 565.60,575.10"/>
    </edge>
    <edge id=":juncMain_116" function="internal">
        <lane id=":juncMain_116_0" index="0" disallow="pedestrian" speed="15.00" length="114.51" shape="563.43,500.00 540.14,496.81 515.17,482.43 500.19,458.46 495.20,424.90"/>
    </edge>
    <edge id=":juncMain_117" function="internal">
        <lane id=":juncMain_117_0" index="0" disallow="pedestrian" speed="15.00" length="112.38" shape="563.90,500.00 541.54,496.81 517.58,482.43 503.19,458.46 498.40,424.90"/>
    </edge>
    <edge id=":juncMain_118" function="internal">
        <lane id=":juncMain_118_0" index="0" disallow="pedestrian" speed="3.65" length="2.34" shape="573.50,500.00 573.90,499.20 575.10,498.40"/>
    </edge>
    <edge id=":juncMain_55" function="internal">
        <lane id=":juncMain_55_0" index="0" disallow="pedestrian" speed="6.86" length="5.93" shape="568.80,424.90 569.19,427.66 570.38,429.62 571.10,430.06"/>
        <lane id=":juncMain_55_1" index="1" disallow="pedestrian" speed="7.64" length="8.35" shape="568.80,424.90 569.19,429.06 570.38,432.02 571.10,432.68"/>
    </edge>
    <edge id=":juncMain_57" function="internal">
        <lane id=":juncMain_57_0" index="0" disallow="pedestrian" speed="15.00" length="150.20" shape="568.80,424.90 568.80,575.10"/>
        <lane id=":juncMain_57_1" index="1" disallow="pedestrian" speed="15.00" length="150.20" shape="565.60,424.90 565.60,575.10"/>
        <lane id=":juncMain_57_2" index="2" disallow="pedestrian" speed="15.00" length="150.20" shape="562.40,424.90 562.40,575.10"/>
        <lane id=":juncMain_57_3" index="3" disallow="pedestrian" speed="15.00" length="150.20" shape="559.20,424.90 559.20,575.10"/>
        <lane id=":juncMain_57_4" index="4" disallow="pedestrian" speed="15.00" length="150.20" shape="556.00,424.90 556.00,575.10"/>
        <lane id=":juncMain_57_5" index="5" disallow="pedestrian" speed="15.00" length="150.20" shape="552.80,424.90 552.80,575.10"/>
        <lane id=":juncMain_57_6" index="6" disallow="pedestrian" speed="15.00" length="150.20" shape="549.60,424.90 549.60,575.10"/>
        <lane id=":juncMain_57_7" index="7" disallow="pedestrian" speed="15.00" length="150.20" shape="546.40,424.90 546.40,575.10"/>
        <lane id=":juncMain_57_8" index="8" disallow="pedestrian" speed="15.00" length="150.20" shape="543.20,424.90 543.20,575.10"/>
        <lane id=":juncMain_57_9" index="9" disallow="pedestrian" speed="15.00" length="150.20" shape="540.00,424.90 540.00,575.10"/>
        <lane id=":juncMain_57_10" index="10" disallow="pedestrian" speed="15.00" length="150.20" shape="536.80,424.90 536.80,575.10"/>
        <lane id=":juncMain_57_11" index="11" disallow="pedestrian" speed="15.00" length="150.20" shape="533.60,424.90 533.60,575.10"/>
        <lane id=":juncMain_57_12" index="12" disallow="pedestrian" speed="15.00" length="150.20" shape="530.40,424.90 530.40,575.10"/>
        <lane id=":juncMain_57_13" index="13" disallow="pedestrian" speed="15.00" length="150.20" shape="527.20,424.90 527.20,575.10"/>
        <lane id=":juncMain_57_14" index="14" disallow="pedestrian" speed="15.00" length="150.20" shape="524.00,424.90 524.00,575.10"/>
        <lane id=":juncMain_57_15" index="15" disallow="pedestrian" speed="15.00" length="150.20" shape="520.80,424.90 520.80,575.10"/>
        <lane id=":juncMain_57_16" index="16" disallow="pedestrian" speed="15.00" length="150.20" shape="517.60,424.90 517.60,575.10"/>
        <lane id=":juncMain_57_17" index="17" disallow="pedestrian" speed="15.00" length="150.20" shape="514.40,424.90 514.40,575.10"/>
        <lane id=":juncMain_57_18" index="18" disallow="pedestrian" speed="15.00" length="150.20" shape="511.20,424.90 511.20,575.10"/>
        <lane id=":juncMain_57_19" index="19" disallow="pedestrian" speed="15.00" length="150.20" shape="508.00,424.90 508.00,575.10"/>
        <lane id=":juncMain_57_20" index="20" disallow="pedestrian" speed="15.00" length="150.20" shape="504.80,424.90 504.80,575.10"/>
        <lane id=":juncMain_57_21" index="21" disallow="pedestrian" speed="15.00" length="150.20" shape="501.60,424.90 501.60,575.10"/>
    </edge>
    <edge id=":juncMain_79" function="internal">
        <lane id=":juncMain_79_0" index="0" disallow="pedestrian" speed="15.00" length="11.78" shape="501.60,424.90 500.00,436.57"/>
        <lane id=":juncMain_79_1" index="1" disallow="pedestrian" speed="15.00" length="11.31" shape="501.60,424.90 500.00,436.10"/>
    </edge>
    <edge id=":juncMain_81" function="internal">
        <lane id=":juncMain_81_0" index="0" disallow="pedestrian" speed="3.65" length="2.34" shape="501.60,424.90 500.80,426.10 500.00,426.50"/>
    </edge>
    <edge id=":juncMain_119" function="internal">
        <lane id=":juncMain_119_0" index="0" disallow="pedestrian" speed="6.86" length="4.23" shape="571.10,430.06 572.34,430.81 575.10,431.20"/>
    </edge>
    <edge id=":juncMain_120" function="internal">
        <lane id=":juncMain_120_0" index="0" disallow="pedestrian" speed="7.64" length="4.50" shape="571.10,432.68 572.34,433.81 575.10,434.40"/>
    </edge>
    <edge id=":juncMain_121" function="internal">
        <lane id=":juncMain_121_0" index="0" disallow="pedestrian" speed="15.00" length="114.51" shape="500.00,436.57 496.81,459.86 482.43,484.82 458.46,499.81 424.90,504.80"/>
    </edge>
    <edge id=":juncMain_122" function="internal">
        <lane id=":juncMain_122_0" index="0" disallow="pedestrian" speed="15.00" length="112.38" shape="500.00,436.10 496.81,458.46 482.43,482.42 458.46,496.81 424.90,501.60"/>
    </edge>
    <edge id=":juncMain_123" function="internal">
        <lane id=":juncMain_123_0" index="0" disallow="pedestrian" speed="3.65" length="2.34" shape="500.00,426.50 499.20,426.10 498.40,424.90"/>
    </edge>
    <edge id=":juncMain_82" function="internal">
        <lane id=":juncMain_82_0" index="0" disallow="pedestrian" speed="6.86" length="5.93" shape="424.90,431.20 427.66,430.81 429.62,429.62 430.06,428.90"/>
        <lane id=":juncMain_82_1" index="1" disallow="pedestrian" speed="7.64" length="8.35" shape="424.90,431.20 429.06,430.81 432.02,429.62 432.68,428.90"/>
    </edge>
    <edge id=":juncMain_84" function="internal">
        <lane id=":juncMain_84_0" index="0" disallow="pedestrian" speed="15.00" length="150.20" shape="424.90,431.20 575.10,431.20"/>
        <lane id=":juncMain_84_1" index="1" disallow="pedestrian" speed="15.00" length="150.20" shape="424.90,434.40 575.10,434.40"/>
        <lane id=":juncMain_84_2" index="2" disallow="pedestrian" speed="15.00" length="150.20" shape="424.90,437.60 575.10,437.60"/>
        <lane id=":juncMain_84_3" index="3" disallow="pedestrian" speed="15.00" length="150.20" shape="424.90,440.80 575.10,440.80"/>
        <lane id=":juncMain_84_4" index="4" disallow="pedestrian" speed="15.00" length="150.20" shape="424.90,444.00 575.10,444.00"/>
        <lane id=":juncMain_84_5" index="5" disallow="pedestrian" speed="15.00" length="150.20" shape="424.90,447.20 575.10,447.20"/>
        <lane id=":juncMain_84_6" index="6" disallow="pedestrian" speed="15.00" length="150.20" shape="424.90,450.40 575.10,450.40"/>
        <lane id=":juncMain_84_7" index="7" disallow="pedestrian" speed="15.00" length="150.20" shape="424.90,453.60 575.10,453.60"/>
        <lane id=":juncMain_84_8" index="8" disallow="pedestrian" speed="15.00" length="150.20" shape="424.90,456.80 575.10,456.80"/>
        <lane id=":juncMain_84_9" index="9" disallow="pedestrian" speed="15.00" length="150.20" shape="424.90,460.00 575.10,460.00"/>
        <lane id=":juncMain_84_10" index="10" disallow="pedestrian" speed="15.00" length="150.20" shape="424.90,463.20 575.10,463.20"/>
        <lane id=":juncMain_84_11" index="11" disallow="pedestrian" speed="15.00" length="150.20" shape="424.90,466.40 575.10,466.40"/>
        <lane id=":juncMain_84_12" index="12" disallow="pedestrian" speed="15.00" length="150.20" shape="424.90,469.60 575.10,469.60"/>
        <lane id=":juncMain_84_13" index="13" disallow="pedestrian" speed="15.00" length="150.20" shape="424.90,472.80 575.10,472.80"/>
        <lane id=":juncMain_84_14" index="14" disallow="pedestrian" speed="15.00" length="150.20" shape="424.90,476.00 575.10,476.00"/>
        <lane id=":juncMain_84_15" index="15" disallow="pedestrian" speed="15.00" length="150.20" shape="424.90,479.20 575.10,479.20"/>
        <lane id=":juncMain_84_16" index="16" disallow="pedestrian" speed="15.00" length="150.20" shape="424.90,482.40 575.10,482.40"/>
        <lane id=":juncMain_84_17" index="17" disallow="pedestrian" speed="15.00" length="150.20" shape="424.90,485.60 575.10,485.60"/>
        <lane id=":juncMain_84_18" index="18" disallow="pedestrian" speed="15.00" length="150.20" shape="424.90,488.80 575.10,488.80"/>
        <lane id=":juncMain_84_19" index="19" disallow="pedestrian" speed="15.00" length="150.20" shape="424.90,492.00 575.10,492.00"/>
        <lane id=":juncMain_84_20" index="20" disallow="pedestrian" speed="15.00" length="150.20" shape="424.90,495.20 575.10,495.20"/>
        <lane id=":juncMain_84_21" index="21" disallow="pedestrian" speed="15.00" length="150.20" shape="424.90,498.40 575.10,498.40"/>
    </edge>
    <edge id=":juncMain_106" function="internal">
        <lane id=":juncMain_106_0" index="0" disallow="pedestrian" speed="15.00" length="11.78" shape="424.90,498.40 436.57,500.00"/>
        <lane id=":juncMain_106_1" index="1" disallow="pedestrian" speed="15.00" length="11.31" shape="424.90,498.40 436.10,500.00"/>
    </edge>
    <edge id=":juncMain_108" function="internal">
        <lane id=":juncMain_108_0" index="0" disallow="pedestrian" speed="3.65" length="2.34" shape="424.90,498.40 426.10,499.20 426.50,500.00"/>
    </edge>
    <edge id=":juncMain_124" function="internal">
        <lane id=":juncMain_124_0" index="0" disallow="pedestrian" speed="6.86" length="4.23" shape="430.06,428.90 430.81,427.66 431.20,424.90"/>
    </edge>
    <edge id=":juncMain_125" function="internal">
        <lane id=":juncMain_125_0" index="0" disallow="pedestrian" speed="7.64" length="4.50" shape="432.68,428.90 433.81,427.66 434.40,424.90"/>
    </edge>
    <edge id=":juncMain_126" function="internal">
        <lane id=":juncMain_126_0" index="0" disallow="pedestrian" speed="15.00" length="114.51" shape="436.57,500.00 459.86,503.19 484.82,517.57 499.81,541.54 504.80,575.10"/>
    </edge>
    <edge id=":juncMain_127" function="internal">
        <lane id=":juncMain_127_0" index="0" disallow="pedestrian" speed="15.00" length="112.38" shape="436.10,500.00 458.46,503.19 482.42,517.57 496.81,541.54 501.60,575.10"/>
    </edge>
    <edge id=":juncMain_128" function="internal">
        <lane id=":juncMain_128_0" index="0" disallow="pedestrian" speed="3.65" length="2.34" shape="426.50,500.00 426.10,500.80 424.90,501.60"/>
    </edge>
    <edge id=":juncMain_c0" function="crossing" crossingEdges="edgeN_I edgeN_O">
        <lane id=":juncMain_c0_0" index="0" allow="pedestrian" speed="1.00" length="140.80" width="4.00" shape="570.40,573.10 429.60,573.10"/>
    </edge>
    <edge id=":juncMain_c1" function="crossing" crossingEdges="edgeE_I edgeE_O">
        <lane id=":juncMain_c1_0" index="0" allow="pedestrian" speed="1.00" length="140.80" width="4.00" shape="573.10,429.60 573.10,570.40"/>
    </edge>
    <edge id=":juncMain_c2" function="crossing" crossingEdges="edgeS_I edgeS_O">
        <lane id=":juncMain_c2_0" index="0" allow="pedestrian" speed="1.00" length="140.80" width="4.00" shape="429.60,426.90 570.40,426.90"/>
    </edge>
    <edge id=":juncMain_c3" function="crossing" crossingEdges="edgeW_I edgeW_O">
        <lane id=":juncMain_c3_0" index="0" allow="pedestrian" speed="1.00" length="140.80" width="4.00" shape="426.90,570.40 426.90,429.60"/>
    </edge>
    <edge id=":juncMain_w0" function="walkingarea">
        <lane id=":juncMain_w0_0" index="0" allow="pedestrian" speed="1.00" length="3.83" width="4.00" shape="424.90,570.40 424.90,573.60 426.40,575.10 429.60,575.10 429.47,573.66 429.08,572.49 428.42,571.58 427.51,570.92 426.34,570.53"/>
    </edge>
    <edge id=":juncMain_w1" function="walkingarea">
        <lane id=":juncMain_w1_0" index="0" allow="pedestrian" speed="1.00" length="3.83" width="4.00" shape="570.40,575.10 573.60,575.10 575.10,573.60 575.10,570.40 573.66,570.53 572.49,570.92 571.58,571.57 570.92,572.49 570.53,573.66"/>
    </edge>
    <edge id=":juncMain_w2" function="walkingarea">
        <lane id=":juncMain_w2_0" index="0" allow="pedestrian" speed="1.00" length="3.83" width="4.00" shape="575.10,429.60 575.10,426.40 573.60,424.90 570.40,424.90 570.53,426.34 570.92,427.51 571.57,428.42 572.49,429.08 573.66,429.47"/>
    </edge>
    <edge id=":juncMain_w3" function="walkingarea">
        <lane id=":juncMain_w3_0" index="0" allow="pedestrian" speed="1.00" length="3.83" width="4.00" shape="429.60,424.90 426.40,424.90 424.90,426.40 424.90,429.60 426.34,429.47 427.51,429.08 428.42,428.42 429.08,427.51 429.47,426.34"/>
    </edge>
    <edge id=":juncN_0" function="internal">
        <lane id=":juncN_0_0" index="0" disallow="pedestrian" speed="3.65" length="4.67" shape="501.60,1000.00 500.80,1001.20 500.00,1001.60 499.20,1001.20 498.40,1000.00"/>
    </edge>
    <edge id=":juncN_w0" function="walkingarea">
        <lane id=":juncN_w0_0" index="0" allow="pedestrian" speed="1.00" length="144.00" width="3.20" shape="429.60,1000.00 426.40,1000.00 573.60,1000.00 570.40,1000.00"/>
    </edge>
    <edge id=":juncS_0" function="internal">
        <lane id=":juncS_0_0" index="0" disallow="pedestrian" speed="3.65" length="4.67" shape="498.40,0.00 499.20,-1.20 500.00,-1.60 500.80,-1.20 501.60,0.00"/>
    </edge>
    <edge id=":juncS_w0" function="walkingarea">
        <lane id=":juncS_w0_0" index="0" allow="pedestrian" speed="1.00" length="144.00" width="3.20" shape="570.40,0.00 573.60,0.00 426.40,0.00 429.60,0.00"/>
    </edge>
    <edge id=":juncW_0" function="internal">
        <lane id=":juncW_0_0" index="0" disallow="pedestrian" speed="3.65" length="4.67" shape="0.00,501.60 -1.20,500.80 -1.60,500.00 -1.20,499.20 0.00,498.40"/>
    </edge>
    <edge id=":juncW_w0" function="walkingarea">
        <lane id=":juncW_w0_0" index="0" allow="pedestrian" speed="1.00" length="144.00" width="3.20" shape="0.00,429.60 0.00,426.40 0.00,573.60 0.00,570.40"/>
    </edge>

    <edge id="edgeE_I" from="juncMain" to="juncE" priority="46">
        <lane id="edgeE_I_0" index="0" allow="pedestrian" speed="11.00" length="424.90" shape="575.10,428.00 1000.00,428.00"/>
        <lane id="edgeE_I_1" index="1" disallow="pedestrian" speed="11.00" length="424.90" shape="575.10,431.20 1000.00,431.20"/>
        <lane id="edgeE_I_2" index="2" disallow="pedestrian" speed="11.00" length="424.90" shape="575.10,434.40 1000.00,434.40"/>
        <lane id="edgeE_I_3" index="3" disallow="pedestrian" speed="11.00" length="424.90" shape="575.10,437.60 1000.00,437.60"/>
        <lane id="edgeE_I_4" index="4" disallow="pedestrian" speed="11.00" length="424.90" shape="575.10,440.80 1000.00,440.80"/>
        <lane id="edgeE_I_5" index="5" disallow="pedestrian" speed="11.00" length="424.90" shape="575.10,444.00 1000.00,444.00"/>
        <lane id="edgeE_I_6" index="6" disallow="pedestrian" speed="11.00" length="424.90" shape="575.10,447.20 1000.00,447.20"/>
        <lane id="edgeE_I_7" index="7" disallow="pedestrian" speed="11.00" length="424.90" shape="575.10,450.40 1000.00,450.40"/>
        <lane id="edgeE_I_8" index="8" disallow="pedestrian" speed="11.00" length="424.90" shape="575.10,453.60 1000.00,453.60"/>
        <lane id="edgeE_I_9" index="9" disallow="pedestrian" speed="11.00" length="424.90" shape="575.10,456.80 1000.00,456.80"/>
        <lane id="edgeE_I_10" index="10" disallow="pedestrian" speed="11.00" length="424.90" shape="575.10,460.00 1000.00,460.00"/>
        <lane id="edgeE_I_11" index="11" disallow="pedestrian" speed="11.00" length="424.90" shape="575.10,463.20 1000.00,463.20"/>
        <lane id="edgeE_I_12" index="12" disallow="pedestrian" speed="11.00" length="424.90" shape="575.10,466.40 1000.00,466.40"/>
        <lane id="edgeE_I_13" index="13" disallow="pedestrian" speed="11.00" length="424.90" shape="575.10,469.60 1000.00,469.60"/>
        <lane id="edgeE_I_14" index="14" disallow="pedestrian" speed="11.00" length="424.90" shape="575.10,472.80 1000.00,472.80"/>
        <lane id="edgeE_I_15" index="15" disallow="pedestrian" speed="11.00" length="424.90" shape="575.10,476.00 1000.00,476.00"/>
        <lane id="edgeE_I_16" index="16" disallow="pedestrian" speed="11.00" length="424.90" shape="575.10,479.20 1000.00,479.20"/>
        <lane id="edgeE_I_17" index="17" disallow="pedestrian" speed="11.00" length="424.90" shape="575.10,482.40 1000.00,482.40"/>
        <lane id="edgeE_I_18" index="18" disallow="pedestrian" speed="11.00" length="424.90" shape="575.10,485.60 1000.00,485.60"/>
        <lane id="edgeE_I_19" index="19" disallow="pedestrian" speed="11.00" length="424.90" shape="575.10,488.80 1000.00,488.80"/>
        <lane id="edgeE_I_20" index="20" disallow="pedestrian" speed="11.00" length="424.90" shape="575.10,492.00 1000.00,492.00"/>
        <lane id="edgeE_I_21" index="21" disallow="pedestrian" speed="11.00" length="424.90" shape="575.10,495.20 1000.00,495.20"/>
        <lane id="edgeE_I_22" index="22" disallow="pedestrian" speed="11.00" length="424.90" shape="575.10,498.40 1000.00,498.40"/>
    </edge>
    <edge id="edgeE_O" from="juncE" to="juncMain" priority="78">
        <lane id="edgeE_O_0" index="0" allow="pedestrian" speed="19.00" length="424.90" shape="1000.00,572.00 575.10,572.00"/>
        <lane id="edgeE_O_1" index="1" disallow="pedestrian" speed="19.00" length="424.90" shape="1000.00,568.80 575.10,568.80"/>
        <lane id="edgeE_O_2" index="2" disallow="pedestrian" speed="19.00" length="424.90" shape="1000.00,565.60 575.10,565.60"/>
        <lane id="edgeE_O_3" index="3" disallow="pedestrian" speed="19.00" length="424.90" shape="1000.00,562.40 575.10,562.40"/>
        <lane id="edgeE_O_4" index="4" disallow="pedestrian" speed="19.00" length="424.90" shape="1000.00,559.20 575.10,559.20"/>
        <lane id="edgeE_O_5" index="5" disallow="pedestrian" speed="19.00" length="424.90" shape="1000.00,556.00 575.10,556.00"/>
        <lane id="edgeE_O_6" index="6" disallow="pedestrian" speed="19.00" length="424.90" shape="1000.00,552.80 575.10,552.80"/>
        <lane id="edgeE_O_7" index="7" disallow="pedestrian" speed="19.00" length="424.90" shape="1000.00,549.60 575.10,549.60"/>
        <lane id="edgeE_O_8" index="8" disallow="pedestrian" speed="19.00" length="424.90" shape="1000.00,546.40 575.10,546.40"/>
        <lane id="edgeE_O_9" index="9" disallow="pedestrian" speed="19.00" length="424.90" shape="1000.00,543.20 575.10,543.20"/>
        <lane id="edgeE_O_10" index="10" disallow="pedestrian" speed="19.00" length="424.90" shape="1000.00,540.00 575.10,540.00"/>