<?xml version="1.0" encoding="UTF-8"?>

<!-- generated on 2021-10-08 22:31:32 by Eclipse SUMO netconvert Version 1.10.0
<configuration xmlns:xsi="http://www.w3.org/2001/XMLSchema-instance" xsi:noNamespaceSchemaLocation="http://sumo.dlr.de/xsd/netconvertConfiguration.xsd">

    <input>
        <node-files value="data/cross.nod.xml"/>
        <edge-files value="data/cross.edg.xml"/>
    </input>

    <output>
        <output-file value="data/cross.net.xml"/>
    </output>

    <report>
        <aggregate-warnings value="5"/>
    </report>

</configuration>
-->

<net version="1.9" junctionCornerDetail="5" limitTurnSpeed="5.50" xmlns:xsi="http://www.w3.org/2001/XMLSchema-instance" xsi:noNamespaceSchemaLocation="http://sumo.dlr.de/xsd/net_file.xsd">

    <location netOffset="500.00,500.00" convBoundary="0.00,0.00,1000.00,1000.00" origBoundary="-500.00,-500.00,500.00,500.00" projParameter="!"/>

    <edge id=":juncE_0" function="internal">
        <lane id=":juncE_0_0" index="0" speed="3.65" length="4.67" shape="1000.00,498.40 1001.20,499.20 1001.60,500.00 1001.20,500.80 1000.00,501.60"/>
    </edge>
    <edge id=":juncMain_0" function="internal">
        <lane id=":juncMain_0_0" index="0" speed="6.51" length="9.03" shape="485.60,513.60 485.25,511.15 484.20,509.40 482.45,508.35 480.00,508.00"/>
    </edge>
    <edge id=":juncMain_1" function="internal">
        <lane id=":juncMain_1_0" index="0" speed="15.00" length="27.20" shape="485.60,513.60 485.60,486.40"/>
        <lane id=":juncMain_1_1" index="1" speed="15.00" length="27.20" shape="488.80,513.60 488.80,486.40"/>
        <lane id=":juncMain_1_2" index="2" speed="15.00" length="27.20" shape="492.00,513.60 492.00,486.40"/>
        <lane id=":juncMain_1_3" index="3" speed="15.00" length="27.20" shape="495.20,513.60 495.20,486.40"/>
        <lane id=":juncMain_1_4" index="4" speed="15.00" length="27.20" shape="498.40,513.60 498.40,486.40"/>
    </edge>
    <edge id=":juncMain_6" function="internal">
        <lane id=":juncMain_6_0" index="0" speed="11.39" length="7.17" shape="498.40,513.60 499.75,506.95 500.00,506.66"/>
    </edge>
    <edge id=":juncMain_7" function="internal">
        <lane id=":juncMain_7_0" index="0" speed="3.65" length="2.34" shape="498.40,513.60 499.20,512.40 500.00,512.00"/>
    </edge>
    <edge id=":juncMain_32" function="internal">
        <lane id=":juncMain_32_0" index="0" speed="11.39" length="22.68" shape="500.00,506.66 503.80,502.20 510.55,499.35 520.00,498.40"/>
    </edge>
    <edge id=":juncMain_33" function="internal">
        <lane id=":juncMain_33_0" index="0" speed="3.65" length="2.34" shape="500.00,512.00 500.80,512.40 501.60,513.60"/>
    </edge>
    <edge id=":juncMain_8" function="internal">
        <lane id=":juncMain_8_0" index="0" speed="6.51" length="9.03" shape="520.00,508.00 517.55,508.35 515.80,509.40 514.75,511.15 514.40,513.60"/>
        <lane id=":juncMain_8_1" index="1" speed="7.33" length="11.73" shape="520.00,508.00 516.15,508.35 513.40,509.40 511.75,511.15 511.20,513.60"/>
    </edge>
    <edge id=":juncMain_10" function="internal">
        <lane id=":juncMain_10_0" index="0" speed="15.00" length="40.00" shape="520.00,508.00 480.00,508.00"/>
        <lane id=":juncMain_10_1" index="1" speed="15.00" length="40.00" shape="520.00,504.80 480.00,504.80"/>
        <lane id=":juncMain_10_2" index="2" speed="15.00" length="40.00" shape="520.00,501.60 480.00,501.60"/>
    </edge>
    <edge id=":juncMain_13" function="internal">
        <lane id=":juncMain_13_0" index="0" speed="11.89" length="12.77" shape="520.00,501.60 509.15,500.65 507.38,500.00"/>
        <lane id=":juncMain_13_1" index="1" speed="11.39" length="11.17" shape="520.00,501.60 510.55,500.65 509.01,500.00"/>
    </edge>
    <edge id=":juncMain_15" function="internal">
        <lane id=":juncMain_15_0" index="0" speed="3.65" length="2.34" shape="520.00,501.60 518.80,500.80 518.40,500.00"/>
    </edge>
    <edge id=":juncMain_34" function="internal">
        <lane id=":juncMain_34_0" index="0" speed="11.89" length="19.85" shape="507.38,500.00 501.40,497.80 496.75,493.05 495.20,486.40"/>
    </edge>
    <edge id=":juncMain_35" function="internal">
        <lane id=":juncMain_35_0" index="0" speed="11.39" length="18.68" shape="509.01,500.00 503.80,497.80 499.75,493.05 498.40,486.40"/>
    </edge>
    <edge id=":juncMain_36" function="internal">
        <lane id=":juncMain_36_0" index="0" speed="3.65" length="2.34" shape="518.40,500.00 518.80,499.20 520.00,498.40"/>
    </edge>
    <edge id=":juncMain_16" function="internal">
        <lane id=":juncMain_16_0" index="0" speed="6.51" length="9.03" shape="514.40,486.40 514.75,488.85 515.80,490.60 517.55,491.65 520.00,492.00"/>
    </edge>
    <edge id=":juncMain_17" function="internal">
        <lane id=":juncMain_17_0" index="0" speed="15.00" length="27.20" shape="514.40,486.40 514.40,513.60"/>
        <lane id=":juncMain_17_1" index="1" speed="15.00" length="27.20" shape="511.20,486.40 511.20,513.60"/>
        <lane id=":juncMain_17_2" index="2" speed="15.00" length="27.20" shape="508.00,486.40 508.00,513.60"/>
        <lane id=":juncMain_17_3" index="3" speed="15.00" length="27.20" shape="504.80,486.40 504.80,513.60"/>
        <lane id=":juncMain_17_4" index="4" speed="15.00" length="27.20" shape="501.60,486.40 501.60,513.60"/>
    </edge>
    <edge id=":juncMain_22" function="internal">
        <lane id=":juncMain_22_0" index="0" speed="11.39" length="7.17" shape="501.60,486.40 500.25,493.05 500.00,493.34"/>
    </edge>
    <edge id=":juncMain_23" function="internal">
        <lane id=":juncMain_23_0" index="0" speed="3.65" length="2.34" shape="501.60,486.40 500.80,487.60 500.00,488.00"/>
    </edge>
    <edge id=":juncMain_37" function="internal">
        <lane id=":juncMain_37_0" index="0" speed="11.39" length="22.68" shape="500.00,493.34 496.20,497.80 489.45,500.65 480.00,501.60"/>
    </edge>
    <edge id=":juncMain_38" function="internal">
        <lane id=":juncMain_38_0" index="0" speed="3.65" length="2.34" shape="500.00,488.00 499.20,487.60 498.40,486.40"/>
    </edge>
    <edge id=":juncMain_24" function="internal">
        <lane id=":juncMain_24_0" index="0" speed="6.51" length="9.03" shape="480.00,492.00 482.45,491.65 484.20,490.60 485.25,488.85 485.60,486.40"/>
        <lane id=":juncMain_24_1" index="1" speed="7.33" length="11.73" shape="480.00,492.00 483.85,491.65 486.60,490.60 488.25,488.85 488.80,486.40"/>
    </edge>
    <edge id=":juncMain_26" function="internal">
        <lane id=":juncMain_26_0" index="0" speed="15.00" length="40.00" shape="480.00,492.00 520.00,492.00"/>
        <lane id=":juncMain_26_1" index="1" speed="15.00" length="40.00" shape="480.00,495.20 520.00,495.20"/>
        <lane id=":juncMain_26_2" index="2" speed="15.00" length="40.00" shape="480.00,498.40 520.00,498.40"/>
    </edge>
    <edge id=":juncMain_29" function="internal">
        <lane id=":juncMain_29_0" index="0" speed="11.89" length="12.77" shape="480.00,498.40 490.85,499.35 492.62,500.00"/>
        <lane id=":juncMain_29_1" index="1" speed="11.39" length="11.17" shape="480.00,498.40 489.45,499.35 490.99,500.00"/>
    </edge>
    <edge id=":juncMain_31" function="internal">
        <lane id=":juncMain_31_0" index="0" speed="3.65" length="2.34" shape="480.00,498.40 481.20,499.20 481.60,500.00"/>
    </edge>
    <edge id=":juncMain_39" function="internal">
        <lane id=":juncMain_39_0" index="0" speed="11.89" length="19.85" shape="492.62,500.00 498.60,502.20 503.25,506.95 504.80,513.60"/>
    </edge>
    <edge id=":juncMain_40" function="internal">
        <lane id=":juncMain_40_0" index="0" speed="11.39" length="18.68" shape="490.99,500.00 496.20,502.20 500.25,506.95 501.60,513.60"/>
    </edge>
    <edge id=":juncMain_41" function="internal">
        <lane id=":juncMain_41_0" index="0" speed="3.65" length="2.34" shape="481.60,500.00 481.20,500.80 480.00,501.60"/>
    </edge>
    <edge id=":juncN_0" function="internal">
        <lane id=":juncN_0_0" index="0" speed="3.65" length="4.67" shape="501.60,1000.00 500.80,1001.20 500.00,1001.60 499.20,1001.20 498.40,1000.00"/>
    </edge>
    <edge id=":juncS_0" function="internal">
        <lane id=":juncS_0_0" index="0" speed="3.65" length="4.67" shape="498.40,0.00 499.20,-1.20 500.00,-1.60 500.80,-1.20 501.60,0.00"/>
    </edge>
    <edge id=":juncW_0" function="internal">
        <lane id=":juncW_0_0" index="0" speed="3.65" length="4.67" shape="0.00,501.60 -1.20,500.80 -1.60,500.00 -1.20,499.20 0.00,498.40"/>
    </edge>

    <edge id="edgeE_I" from="juncMain" to="juncE" priority="46">
        <lane id="edgeE_I_0" index="0" speed="11.00" length="480.00" shape="520.00,492.00 1000.00,492.00"/>
        <lane id="edgeE_I_1" index="1" speed="11.00" length="480.00" shape="520.00,495.20 1000.00,495.20"/>
        <lane id="edgeE_I_2" index="2" speed="11.00" length="480.00" shape="520.00,498.40 1000.00,498.40"/>
    </edge>
    <edge id="edgeE_O" from="juncE" to="juncMain" priority="78">
        <lane id="edgeE_O_0" index="0" speed="19.00" length="480.00" shape="1000.00,508.00 520.00,508.00"/>
        <lane id="edgeE_O_1" index="1" speed="19.00" length="480.00" shape="1000.00,504.80 520.00,504.80"/>
        <lane id="edgeE_O_2" index="2" speed="19.00" length="480.00" shape="1000.00,501.60 520.00,501.60"/>
    </edge>
    <edge id="edgeN_I" from="juncMain" to="juncN" priority="46">
        <lane id="edgeN_I_0" index="0" speed="11.00" length="486.40" shape="514.40,513.60 514.40,1000.00"/>
        <lane id="edgeN_I_1" index="1" speed="11.00" length="486.40" shape="511.20,513.60 511.20,1000.00"/>
        <lane id="edgeN_I_2" index="2" speed="11.00" length="486.40" shape="508.00,513.60 508.00,1000.00"/>
        <lane id="edgeN_I_3" index="3" speed="11.00" length="486.40" shape="504.80,513.60 504.80,1000.00"/>
        <lane id="edgeN_I_4" index="4" speed="11.00" length="486.40" shape="501.60,513.60 501.60,1000.00"/>
    </edge>
    <edge id="edgeN_O" from="juncN" to="juncMain" priority="78">
        <lane id="edgeN_O_0" index="0" speed="19.00" length="486.40" shape="485.60,1000.00 485.60,513.60"/>
        <lane id="edgeN_O_1" index="1" speed="19.00" length="486.40" shape="488.80,1000.00 488.80,513.60"/>
        <lane id="edgeN_O_2" index="2" speed="19.00" length="486.40" shape="492.00,1000.00 492.00,513.60"/>
        <lane id="edgeN_O_3" index="3" speed="19.00" length="486.40" shape="495.20,1000.00 495.20,513.60"/>
        <lane id="edgeN_O_4" index="4" speed="19.00" length="486.40" shape="498.40,1000.00 498.40,513.60"/>
    </edge>
    <edge id="edgeS_I" from="juncMain" to="juncS" priority="46">
        <lane id="edgeS_I_0" index="0" speed="11.00" length="486.40" shape="485.60,486.40 485.60,0.00"/>
        <lane id="edgeS_I_1" index="1" speed="11.00" length="486.40" shape="488.80,486.40 488.80,0.00"/>
        <lane id="edgeS_I_2" index="2" speed="11.00" length="486.40" shape="492.00,486.40 492.00,0.00"/>
        <lane id="edgeS_I_3" index="3" speed="11.00" length="486.40" shape="495.20,486.40 495.20,0.00"/>
        <lane id="edgeS_I_4" index="4" speed="11.00" length="486.40" shape="498.40,486.40 498.40,0.00"/>
    </edge>
    <edge id="edgeS_O" from="juncS" to="juncMain" priority="78">
        <lane id="edgeS_O_0" index="0" speed="19.00" length="486.40" shape="514.40,0.00 514.40,486.40"/>
        <lane id="edgeS_O_1" index="1" speed="19.00" length="486.40" shape="511.20,0.00 511.20,486.40"/>
        <lane id="edgeS_O_2" index="2" speed="19.00" length="486.40" shape="508.00,0.00 508.00,486.40"/>
        <lane id="edgeS_O_3" index="3" speed="19.00" length="486.40" shape="504.80,0.00 504.80,486.40"/>
        <lane id="edgeS_O_4" index="4" speed="19.00" length="486.40" shape="501.60,0.00 501.60,486.40"/>
    </edge>
    <edge id="edgeW_I" from="juncMain" to="juncW" priority="46">
        <lane id="edgeW_I_0" index="0" speed="11.00" length="480.00" shape="480.00,508.00 0.00,508.00"/>
        <lane id="edgeW_I_1" index="1" speed="11.00" length="480.00" shape="480.00,504.80 0.00,504.80"/>
        <lane id="edgeW_I_2" index="2" speed="11.00" length="480.00" shape="480.00,501.60 0.00,501.60"/>
    </edge>
    <edge id="edgeW_O" from="juncW" to="juncMain" priority="78">
        <lane id="edgeW_O_0" index="0" speed="19.00" length="480.00" shape="0.00,492.00 480.00,492.00"/>
        <lane id="edgeW_O_1" index="1" speed="19.00" length="480.00" shape="0.00,495.20 480.00,495.20"/>
        <lane id="edgeW_O_2" index="2" speed="19.00" length="480.00" shape="0.00,498.40 480.00,498.40"/>
    </edge>

    <tlLogic id="juncMain" type="static" programID="0" offset="0">
        <phase duration="41" state="GGGGGGggrrrrrrrrGGGGGGggrrrrrrrr"/>
        <phase duration="4"  state="yyyyyyyyrrrrrrrryyyyyyyyrrrrrrrr"/>
        <phase duration="41" state="rrrrrrrrGGGGGgggrrrrrrrrGGGGGggg"/>
        <phase duration="4"  state="rrrrrrrryyyyyyyyrrrrrrrryyyyyyyy"/>
    </tlLogic>

    <junction id="juncE" type="priority" x="1000.00" y="500.00" incLanes="edgeE_I_0 edgeE_I_1 edgeE_I_2" intLanes=":juncE_0_0" shape="1000.00,500.00 1000.00,490.40 1000.00,500.00">
        <request index="0" response="0" foes="0" cont="0"/>
    </junction>
    <junction id="juncMain" type="traffic_light" x="500.00" y="500.00" incLanes="edgeN_O_0 edgeN_O_1 edgeN_O_2 edgeN_O_3 edgeN_O_4 edgeE_O_0 edgeE_O_1 edgeE_O_2 edgeS_O_0 edgeS_O_1 edgeS_O_2 edgeS_O_3 edgeS_O_4 edgeW_O_0 edgeW_O_1 edgeW_O_2" intLanes=":juncMain_0_0 :juncMain_1_0 :juncMain_1_1 :juncMain_1_2 :juncMain_1_3 :juncMain_1_4 :juncMain_32_0 :juncMain_33_0 :juncMain_8_0 :juncMain_8_1 :juncMain_10_0 :juncMain_10_1 :juncMain_10_2 :juncMain_34_0 :juncMain_35_0 :juncMain_36_0 :juncMain_16_0 :juncMain_17_0 :juncMain_17_1 :juncMain_17_2 :juncMain_17_3 :juncMain_17_4 :juncMain_37_0 :juncMain_38_0 :juncMain_24_0 :juncMain_24_1 :juncMain_26_0 :juncMain_26_1 :juncMain_26_2 :juncMain_39_0 :juncMain_40_0 :juncMain_41_0" shape="484.00,513.60 516.00,513.60 516.44,511.38 517.00,510.60 517.78,510.04 518.78,509.71 520.00,509.60 520.00,490.40 517.78,489.96 517.00,489.40 516.44,488.62 516.11,487.62 516.00,486.40 484.00,486.40 483.56,488.62 483.00,489.40 482.22,489.96 481.22,490.29 480.00,490.40 480.00,509.60 482.22,510.04 483.00,510.60 483.56,511.38 483.89,512.38">
        <request index="0"  response="00000000000000000000000000000000" foes="00000000000000000001110000000000" cont="0"/>
        <request index="1"  response="01100000000000000110000000000000" foes="01111111110000000111110000000000" cont="0"/>
        <request index="2"  response="01100000000000000110000000000000" foes="01111111110000000111110000000000" cont="0"/>
        <request index="3"  response="01100000000000000110000000000000" foes="01111111110000000111110000000000" cont="0"/>
        <request index="4"  response="01100000000000000110000000000000" foes="01111111110000000111110000000000" cont="0"/>
        <request index="5"  response="01100000000000000110000000000000" foes="01111111110000000111110000000000" cont="0"/>
        <request index="6"  response="01100000001111100110000000000000" foes="01111100001111101111110000000000" cont="1"/>
        <request index="7"  response="01100000001111100000000000000000" foes="01100000001111100000000000000000" cont="1"/>
        <request index="8"  response="00000000001111100000000000000000" foes="00000000001111100000000000000000" cont="0"/>
        <request index="9"  response="00000000001111100000000000000000" foes="00000000001111100000000000000000" cont="0"/>
        <request index="10" response="00000000011111100000000001111111" foes="11100000011111100000000001111111" cont="0"/>
        <request index="11" response="00000000011111100000000001111111" foes="11100000011111100000000001111111" cont="0"/>
        <request index="12" response="00000000011111100000000001111111" foes="11100000011111100000000001111111" cont="0"/>
        <request index="13" response="00011100011111100000000001111110" foes="00011100111111100000000001111110" cont="1"/>
        <request index="14" response="00011100011111100000000001111110" foes="00011100111111100000000001111110" cont="1"/>
        <request index="15" response="00011100000000000000000001000000" foes="00011100000000000000000001000000" cont="1"/>
        <request index="16" response="00000000000000000000000000000000" foes="00011100000000000000000000000000" cont="0"/>
        <request index="17" response="01100000000000000110000000000000" foes="01111100000000000111111111000000" cont="0"/>
        <request index="18" response="01100000000000000110000000000000" foes="01111100000000000111111111000000" cont="0"/>
        <request index="19" response="01100000000000000110000000000000" foes="01111100000000000111111111000000" cont="0"/>
        <request index="20" response="01100000000000000110000000000000" foes="01111100000000000111111111000000" cont="0"/>
        <request index="21" response="01100000000000000110000000000000" foes="01111100000000000111111111000000" cont="0"/>
        <request index="22" response="01100000000000000110000000111110" foes="11111100000000000111110000111110" cont="1"/>
        <request index="23" response="00000000000000000110000000111110" foes="00000000000000000110000000111110" cont="1"/>
        <request index="24" response="00000000000000000000000000111110" foes="00000000000000000000000000111110" cont="0"/>
        <request index="25" response="00000000000000000000000000111110" foes="00000000000000000000000000111110" cont="0"/>
        <request index="26" response="00000000011111110000000001111110" foes="00000000011111111110000001111110" cont="0"/>
        <request index="27" response="00000000011111110000000001111110" foes="00000000011111111110000001111110" cont="0"/>
        <request index="28" response="00000000011111110000000001111110" foes="00000000011111111110000001111110" cont="0"/>
        <request index="29" response="00000000011111100001110001111110" foes="00000000011111100001110011111110" cont="1"/>
        <request index="30" response="00000000011111100001110001111110" foes="00000000011111100001110011111110" cont="1"/>
        <request index="31" response="00000000010000000001110000000000" foes="00000000010000000001110000000000" cont="1"/>
    </junction>
    <junction id="juncN" type="priority" x="500.00" y="1000.00" incLanes="edgeN_I_0 edgeN_I_1 edgeN_I_2 edgeN_I_3 edgeN_I_4" intLanes=":juncN_0_0" shape="500.00,1000.00 516.00,1000.00 500.00,1000.00">
        <request index="0" response="0" foes="0" cont="0"/>
    </junction>
    <junction id="juncS" type="priority" x="500.00" y="0.00" incLanes="edgeS_I_0 edgeS_I_1 edgeS_I_2 edgeS_I_3 edgeS_I_4" intLanes=":juncS_0_0" shape="500.00,0.00 484.00,0.00 500.00,0.00">
        <request index="0" response="0" foes="0" cont="0"/>
    </junction>
    <junction id="juncW" type="priority" x="0.00" y="500.00" incLanes="edgeW_I_0 edgeW_I_1 edgeW_I_2" intLanes=":juncW_0_0" shape="0.00,500.00 0.00,509.60 0.00,500.00">
        <request index="0" response="0" foes="0" cont="0"/>
    </junction>

    <junction id=":juncMain_32_0" type="internal" x="500.00" y="506.66" incLanes=":juncMain_6_0 edgeS_O_0 edgeS_O_1 edgeS_O_2 edgeS_O_3 edgeS_O_4" intLanes=":juncMain_10_0 :juncMain_10_1 :juncMain_10_2 :juncMain_13_0 :juncMain_13_1 :juncMain_15_0 :juncMain_16_0 :juncMain_17_0 :juncMain_17_1 :juncMain_17_2 :juncMain_17_3 :juncMain_17_4 :juncMain_26_0 :juncMain_26_1 :juncMain_26_2 :juncMain_29_0 :juncMain_29_1"/>
    <junction id=":juncMain_33_0" type="internal" x="500.00" y="512.00" incLanes=":juncMain_7_0 edgeE_O_0 edgeS_O_0 edgeS_O_1 edgeS_O_2 edgeS_O_3 edgeS_O_4 edgeW_O_2" intLanes=":juncMain_8_0 :juncMain_8_1 :juncMain_17_0 :juncMain_17_1 :juncMain_17_2 :juncMain_17_3 :juncMain_17_4 :juncMain_29_0 :juncMain_29_1"/>
    <junction id=":juncMain_34_0" type="internal" x="507.38" y="500.00" incLanes=":juncMain_13_0 edgeW_O_0 edgeW_O_1 edgeW_O_2" intLanes=":juncMain_1_0 :juncMain_1_1 :juncMain_1_2 :juncMain_1_3 :juncMain_1_4 :juncMain_6_0 :juncMain_17_0 :juncMain_17_1 :juncMain_17_2 :juncMain_17_3 :juncMain_17_4 :juncMain_22_0 :juncMain_23_0 :juncMain_24_0 :juncMain_24_1 :juncMain_26_0 :juncMain_26_1 :juncMain_26_2"/>
    <junction id=":juncMain_35_0" type="internal" x="509.01" y="500.00" incLanes=":juncMain_13_1 edgeW_O_0 edgeW_O_1 edgeW_O_2" intLanes=":juncMain_1_0 :juncMain_1_1 :juncMain_1_2 :juncMain_1_3 :juncMain_1_4 :juncMain_6_0 :juncMain_17_0 :juncMain_17_1 :juncMain_17_2 :juncMain_17_3 :juncMain_17_4 :juncMain_22_0 :juncMain_23_0 :juncMain_24_0 :juncMain_24_1 :juncMain_26_0 :juncMain_26_1 :juncMain_26_2"/>
    <junction id=":juncMain_36_0" type="internal" x="518.40" y="500.00" incLanes=":juncMain_15_0 edgeN_O_4 edgeS_O_0 edgeW_O_0 edgeW_O_1 edgeW_O_2" intLanes=":juncMain_6_0 :juncMain_16_0 :juncMain_26_0 :juncMain_26_1 :juncMain_26_2"/>
    <junction id=":juncMain_37_0" type="internal" x="500.00" y="493.34" incLanes=":juncMain_22_0 edgeN_O_0 edgeN_O_1 edgeN_O_2 edgeN_O_3 edgeN_O_4" intLanes=":juncMain_0_0 :juncMain_1_0 :juncMain_1_1 :juncMain_1_2 :juncMain_1_3 :juncMain_1_4 :juncMain_10_0 :juncMain_10_1 :juncMain_10_2 :juncMain_13_0 :juncMain_13_1 :juncMain_26_0 :juncMain_26_1 :juncMain_26_2 :juncMain_29_0 :juncMain_29_1 :juncMain_31_0"/>
    <junction id=":juncMain_38_0" type="internal" x="500.00" y="488.00" incLanes=":juncMain_23_0 edgeE_O_2 edgeN_O_0 edgeN_O_1 edgeN_O_2 edgeN_O_3 edgeN_O_4 edgeW_O_0" intLanes=":juncMain_1_0 :juncMain_1_1 :juncMain_1_2 :juncMain_1_3 :juncMain_1_4 :juncMain_13_0 :juncMain_13_1 :juncMain_24_0 :juncMain_24_1"/>
    <junction id=":juncMain_39_0" type="internal" x="492.62" y="500.00" incLanes=":juncMain_29_0 edgeE_O_0 edgeE_O_1 edgeE_O_2" intLanes=":juncMain_1_0 :juncMain_1_1 :juncMain_1_2 :juncMain_1_3 :juncMain_1_4 :juncMain_6_0 :juncMain_7_0 :juncMain_8_0 :juncMain_8_1 :juncMain_10_0 :juncMain_10_1 :juncMain_10_2 :juncMain_17_0 :juncMain_17_1 :juncMain_17_2 :juncMain_17_3 :juncMain_17_4 :juncMain_22_0"/>
    <junction id=":juncMain_40_0" type="internal" x="490.99" y="500.00" incLanes=":juncMain_29_1 edgeE_O_0 edgeE_O_1 edgeE_O_2" intLanes=":juncMain_1_0 :juncMain_1_1 :juncMain_1_2 :juncMain_1_3 :juncMain_1_4 :juncMain_6_0 :juncMain_7_0 :juncMain_8_0 :juncMain_8_1 :juncMain_10_0 :juncMain_10_1 :juncMain_10_2 :juncMain_17_0 :juncMain_17_1 :juncMain_17_2 :juncMain_17_3 :juncMain_17_4 :juncMain_22_0"/>
    <junction id=":juncMain_41_0" type="internal" x="481.60" y="500.00" incLanes=":juncMain_31_0 edgeE_O_0 edgeE_O_1 edgeE_O_2 edgeN_O_0 edgeS_O_4" intLanes=":juncMain_0_0 :juncMain_10_0 :juncMain_10_1 :juncMain_10_2 :juncMain_22_0"/>

    <connection from="edgeE_I" to="edgeE_O" fromLane="2" toLane="2" via=":juncE_0_0" dir="t" state="M"/>
    <connection from="edgeE_O" to="edgeN_I" fromLane="0" toLane="0" via=":juncMain_8_0" tl="juncMain" linkIndex="8" dir="r" state="o"/>
    <connection from="edgeE_O" to="edgeN_I" fromLane="0" toLane="1" via=":juncMain_8_1" tl="juncMain" linkIndex="9" dir="r" state="o"/>
    <connection from="edgeE_O" to="edgeW_I" fromLane="0" toLane="0" via=":juncMain_10_0" tl="juncMain" linkIndex="10" dir="s" state="o"/>
    <connection from="edgeE_O" to="edgeW_I" fromLane="1" toLane="1" via=":juncMain_10_1" tl="juncMain" linkIndex="11" dir="s" state="o"/>
    <connection from="edgeE_O" to="edgeW_I" fromLane="2" toLane="2" via=":juncMain_10_2" tl="juncMain" linkIndex="12" dir="s" state="o"/>
    <connection from="edgeE_O" to="edgeS_I" fromLane="2" toLane="3" via=":juncMain_13_0" tl="juncMain" linkIndex="13" dir="l" state="o"/>
    <connection from="edgeE_O" to="edgeS_I" fromLane="2" toLane="4" via=":juncMain_13_1" tl="juncMain" linkIndex="14" dir="l" state="o"/>
    <connection from="edgeE_O" to="edgeE_I" fromLane="2" toLane="2" via=":juncMain_15_0" tl="juncMain" linkIndex="15" dir="t" state="o"/>
    <connection from="edgeN_I" to="edgeN_O" fromLane="4" toLane="4" via=":juncN_0_0" dir="t" state="M"/>
    <connection from="edgeN_O" to="edgeW_I" fromLane="0" toLane="0" via=":juncMain_0_0" tl="juncMain" linkIndex="0" dir="r" state="O"/>
    <connection from="edgeN_O" to="edgeS_I" fromLane="0" toLane="0" via=":juncMain_1_0" tl="juncMain" linkIndex="1" dir="s" state="O"/>
    <connection from="edgeN_O" to="edgeS_I" fromLane="1" toLane="1" via=":juncMain_1_1" tl="juncMain" linkIndex="2" dir="s" state="O"/>
    <connection from="edgeN_O" to="edgeS_I" fromLane="2" toLane="2" via=":juncMain_1_2" tl="juncMain" linkIndex="3" dir="s" state="O"/>
    <connection from="edgeN_O" to="edgeS_I" fromLane="3" toLane="3" via=":juncMain_1_3" tl="juncMain" linkIndex="4" dir="s" state="O"/>
    <connection from="edgeN_O" to="edgeS_I" fromLane="4" toLane="4" via=":juncMain_1_4" tl="juncMain" linkIndex="5" dir="s" state="O"/>
    <connection from="edgeN_O" to="edgeE_I" fromLane="4" toLane="2" via=":juncMain_6_0" tl="juncMain" linkIndex="6" dir="l" state="o"/>
    <connection from="edgeN_O" to="edgeN_I" fromLane="4" toLane="4" via=":juncMain_7_0" tl="juncMain" linkIndex="7" dir="t" state="o"/>
    <connection from="edgeS_I" to="edgeS_O" fromLane="4" toLane="4" via=":juncS_0_0" dir="t" state="M"/>
    <connection from="edgeS_O" to="edgeE_I" fromLane="0" toLane="0" via=":juncMain_16_0" tl="juncMain" linkIndex="16" dir="r" state="O"/>
    <connection from="edgeS_O" to="edgeN_I" fromLane="0" toLane="0" via=":juncMain_17_0" tl="juncMain" linkIndex="17" dir="s" state="O"/>
    <connection from="edgeS_O" to="edgeN_I" fromLane="1" toLane="1" via=":juncMain_17_1" tl="juncMain" linkIndex="18" dir="s" state="O"/>
    <connection from="edgeS_O" to="edgeN_I" fromLane="2" toLane="2" via=":juncMain_17_2" tl="juncMain" linkIndex="19" dir="s" state="O"/>
    <connection from="edgeS_O" to="edgeN_I" fromLane="3" toLane="3" via=":juncMain_17_3" tl="juncMain" linkIndex="20" dir="s" state="O"/>
    <connection from="edgeS_O" to="edgeN_I" fromLane="4" toLane="4" via=":juncMain_17_4" tl="juncMain" linkIndex="21" dir="s" state="O"/>
    <connection from="edgeS_O" to="edgeW_I" fromLane="4" toLane="2" via=":juncMain_22_0" tl="juncMain" linkIndex="22" dir="l" state="o"/>
    <connection from="edgeS_O" to="edgeS_I" fromLane="4" toLane="4" via=":juncMain_23_0" tl="juncMain" linkIndex="23" dir="t" state="o"/>
    <connection from="edgeW_I" to="edgeW_O" fromLane="2" toLane="2" via=":juncW_0_0" dir="t" state="M"/>
    <connection from="edgeW_O" to="edgeS_I" fromLane="0" toLane="0" via=":juncMain_24_0" tl="juncMain" linkIndex="24" dir="r" state="o"/>
    <connection from="edgeW_O" to="edgeS_I" fromLane="0" toLane="1" via=":juncMain_24_1" tl="juncMain" linkIndex="25" dir="r" state="o"/>
    <connection from="edgeW_O" to="edgeE_I" fromLane="0" toLane="0" via=":juncMain_26_0" tl="juncMain" linkIndex="26" dir="s" state="o"/>
    <connection from="edgeW_O" to="edgeE_I" fromLane="1" toLane="1" via=":juncMain_26_1" tl="juncMain" linkIndex="27" dir="s" state="o"/>
    <connection from="edgeW_O" to="edgeE_I" fromLane="2" toLane="2" via=":juncMain_26_2" tl="juncMain" linkIndex="28" dir="s" state="o"/>
    <connection from="edgeW_O" to="edgeN_I" fromLane="2" toLane="3" via=":juncMain_29_0" tl="juncMain" linkIndex="29" dir="l" state="o"/>
    <connection from="edgeW_O" to="edgeN_I" fromLane="2" toLane="4" via=":juncMain_29_1" tl="juncMain" linkIndex="30" dir="l" state="o"/>
    <connection from="edgeW_O" to="edgeW_I" fromLane="2" toLane="2" via=":juncMain_31_0" tl="juncMain" linkIndex="31" dir="t" state="o"/>

    <connection from=":juncE_0" to="edgeE_O" fromLane="0" toLane="2" dir="t" state="M"/>
    <connection from=":juncMain_0" to="edgeW_I" fromLane="0" toLane="0" dir="r" state="M"/>
    <connection from=":juncMain_1" to="edgeS_I" fromLane="0" toLane="0" dir="s" state="M"/>
    <connection from=":juncMain_1" to="edgeS_I" fromLane="1" toLane="1" dir="s" state="M"/>
    <connection from=":juncMain_1" to="edgeS_I" fromLane="2" toLane="2" dir="s" state="M"/>
    <connection from=":juncMain_1" to="edgeS_I" fromLane="3" toLane="3" dir="s" state="M"/>
    <connection from=":juncMain_1" to="edgeS_I" fromLane="4" toLane="4" dir="s" state="M"/>
    <connection from=":juncMain_6" to="edgeE_I" fromLane="0" toLane="2" via=":juncMain_32_0" dir="l" state="m"/>
    <connection from=":juncMain_32" to="edgeE_I" fromLane="0" toLane="2" dir="l" state="M"/>
    <connection from=":juncMain_7" to="edgeN_I" fromLane="0" toLane="4" via=":juncMain_33_0" dir="t" state="m"/>
    <connection from=":juncMain_33" to="edgeN_I" fromLane="0" toLane="4" dir="t" state="M"/>
    <connection from=":juncMain_8" to="edgeN_I" fromLane="0" toLane="0" dir="r" state="M"/>
    <connection from=":juncMain_8" to="edgeN_I" fromLane="1" toLane="1" dir="r" state="M"/>
    <connection from=":juncMain_10" to="edgeW_I" fromLane="0" toLane="0" dir="s" state="M"/>
    <connection from=":juncMain_10" to="edgeW_I" fromLane="1" toLane="1" dir="s" state="M"/>
    <connection from=":juncMain_10" to="edgeW_I" fromLane="2" toLane="2" dir="s" state="M"/>
    <connection from=":juncMain_13" to="edgeS_I" fromLane="0" toLane="3" via=":juncMain_34_0" dir="l" state="m"/>
    <connection from=":juncMain_34" to="edgeS_I" fromLane="0" toLane="3" dir="l" state="M"/>
    <connection from=":juncMain_13" to="edgeS_I" fromLane="1" toLane="4" via=":juncMain_35_0" dir="l" state="m"/>
    <connection from=":juncMain_35" to="edgeS_I" fromLane="0" toLane="4" dir="l" state="M"/>
    <connection from=":juncMain_15" to="edgeE_I" fromLane="0" toLane="2" via=":juncMain_36_0" dir="t" state="m"/>
    <connection from=":juncMain_36" to="edgeE_I" fromLane="0" toLane="2" dir="t" state="M"/>
    <connection from=":juncMain_16" to="edgeE_I" fromLane="0" toLane="0" dir="r" state="M"/>
    <connection from=":juncMain_17" to="edgeN_I" fromLane="0" toLane="0" dir="s" state="M"/>
    <connection from=":juncMain_17" to="edgeN_I" fromLane="1" toLane="1" dir="s" state="M"/>
    <connection from=":juncMain_17" to="edgeN_I" fromLane="2" toLane="2" dir="s" state="M"/>
    <connection from=":juncMain_17" to="edgeN_I" fromLane="3" toLane="3" dir="s" state="M"/>