<additional>
   <tlLogic id="juncMain" type="static" programID="1" offset="0">
   </tlLogic>
</additional>
