<routes>

<vType id="length_5" length="5" accel="0.800000" decel="4.500000" sigma="0.5" minGap="2.500000" maxSpeed="25.000000" guiShape="passenger">
</vType>

<route id="edgeN_edgeN" edges="edgeN_O edgeN_I" />
<route id="edgeN_edgeS" edges="edgeN_O edgeS_I" />
<route id="edgeN_edgeW" edges="edgeN_O edgeW_I" />
<route id="edgeN_edgeE" edges="edgeN_O edgeE_I" />
<route id="edgeS_edgeN" edges="edgeS_O edgeN_I" />
<route id="edgeS_edgeS" edges="edgeS_O edgeS_I" />
<route id="edgeS_edgeW" edges="edgeS_O edgeW_I" />
<route id="edgeS_edgeE" edges="edgeS_O edgeE_I" />
<route id="edgeW_edgeN" edges="edgeW_O edgeN_I" />
<route id="edgeW_edgeS" edges="edgeW_O edgeS_I" />
<route id="edgeW_edgeW" edges="edgeW_O edgeW_I" />
<route id="edgeW_edgeE" edges="edgeW_O edgeE_I" />
<route id="edgeE_edgeN" edges="edgeE_O edgeN_I" />
<route id="edgeE_edgeS" edges="edgeE_O edgeS_I" />
<route id="edgeE_edgeW" edges="edgeE_O edgeW_I" />
<route id="edgeE_edgeE" edges="edgeE_O edgeE_I" />
    <vehicle id="rightS_0" type="length_5" route="edgeS_edgeE" depart="0" departLane="0" />
    <vehicle id="uturnW_1" type="length_5" route="edgeW_edgeW" depart="1" departLane="4" />
    <vehicle id="straightE_2" type="length_5" route="edgeE_edgeW" depart="1" departLane="random" />
    <vehicle id="straightS_3" type="length_5" route="edgeS_edgeN" depart="2" departLane="random" />
    <vehicle id="straightS_4" type="length_5" route="edgeS_edgeN" depart="3" departLane="random" />
    <vehicle id="rightE_5" type="length_5" route="edgeE_edgeN" depart="3" departLane="0" />
    <vehicle id="leftN_6" type="length_5" route="edgeN_edgeE" depart="4" departLane="4" />
    <vehicle id="straightW_7" type="length_5" route="edgeW_edgeE" depart="7" departLane="random" />
    <vehicle id="rightS_8" type="length_5" route="edgeS_edgeE" depart="9" departLane="0" />
    <vehicle id="straightS_9" type="length_5" route="edgeS_edgeN" depart="10" departLane="random" />
    <vehicle id="uturnW_10" type="length_5" route="edgeW_edgeW" depart="10" departLane="4" />
    <vehicle id="rightW_11" type="length_5" route="edgeW_edgeS" depart="12" departLane="0" />
    <vehicle id="leftW_12" type="length_5" route="edgeW_edgeN" depart="17" departLane="4" />
    <vehicle id="straightE_13" type="length_5" route="edgeE_edgeW" depart="17" departLane="random" />
    <vehicle id="rightN_14" type="length_5" route="edgeN_edgeW" depart="20" departLane="0" />
    <vehicle id="uturnS_15" type="length_5" route="edgeS_edgeS" depart="20" departLane="4" />
    <vehicle id="leftE_16" type="length_5" route="edgeE_edgeS" depart="21" departLane="4" />
    <vehicle id="rightW_17" type="length_5" route="edgeW_edgeS" depart="22" departLane="0" />
    <vehicle id="rightW_18" type="length_5" route="edgeW_edgeS" depart="23" departLane="0" />
    <vehicle id="rightE_19" type="length_5" route="edgeE_edgeN" depart="23" departLane="0" />
    <vehicle id="uturnE_20" type="length_5" route="edgeE_edgeE" depart="24" departLane="4" />
    <vehicle id="uturnW_21" type="length_5" route="edgeW_edgeW" depart="25" departLane="4" />
    <vehicle id="straightE_22" type="length_5" route="edgeE_edgeW" depart="28" departLane="random" />
    <vehicle id="leftN_23" type="length_5" route="edgeN_edgeE" depart="30" departLane="4" />
    <vehicle id="leftS_24" type="length_5" route="edgeS_edgeW" depart="30" departLane="4" />
    <vehicle id="straightW_25" type="length_5" route="edgeW_edgeE" depart="30" departLane="random" />
    <vehicle id="uturnS_26" type="length_5" route="edgeS_edgeS" depart="31" departLane="4" />
    <vehicle id="leftN_27" type="length_5" route="edgeN_edgeE" depart="32" departLane="4" />
    <vehicle id="leftN_28" type="length_5" route="edgeN_edgeE" depart="33" departLane="4" />
    <vehicle id="uturnS_29" type="length_5" route="edgeS_edgeS" depart="34" departLane="4" />
    <vehicle id="leftS_30" type="length_5" route="edgeS_edgeW" depart="36" departLane="4" />
    <vehicle id="uturnN_31" type="length_5" route="edgeN_edgeN" depart="37" departLane="4" />
    <vehicle id="uturnE_32" type="length_5" route="edgeE_edgeE" depart="37" departLane="4" />
    <vehicle id="rightS_33" type="length_5" route="edgeS_edgeE" depart="40" departLane="0" />
    <vehicle id="uturnW_34" type="length_5" route="edgeW_edgeW" depart="41" departLane="4" />
    <vehicle id="leftE_35" type="length_5" route="edgeE_edgeS" depart="41" departLane="4" />
    <vehicle id="leftN_36" type="length_5" route="edgeN_edgeE" depart="42" departLane="4" />
    <vehicle id="leftS_37" type="length_5" route="edgeS_edgeW" depart="43" departLane="4" />
    <vehicle id="rightS_38" type="length_5" route="edgeS_edgeE" depart="45" departLane="0" />
    <vehicle id="uturnN_39" type="length_5" route="edgeN_edgeN" depart="46" departLane="4" />
    <vehicle id="straightS_40" type="length_5" route="edgeS_edgeN" depart="46" departLane="random" />
    <vehicle id="rightW_41" type="length_5" route="edgeW_edgeS" depart="46" departLane="0" />
    <vehicle id="rightS_42" type="length_5" route="edgeS_edgeE" depart="47" departLane="0" />
    <vehicle id="straightS_43" type="length_5" route="edgeS_edgeN" depart="48" departLane="random" />
    <vehicle id="leftW_44" type="length_5" route="edgeW_edgeN" depart="48" departLane="4" />
    <vehicle id="uturnN_45" type="length_5" route="edgeN_edgeN" depart="51" departLane="4" />
    <vehicle id="rightS_46" type="length_5" route="edgeS_edgeE" depart="51" departLane="0" />
    <vehicle id="leftE_47" type="length_5" route="edgeE_edgeS" depart="52" departLane="4" />
    <vehicle id="straightE_48" type="length_5" route="edgeE_edgeW" depart="53" departLane="random" />
    <vehicle id="uturnE_49" type="length_5" route="edgeE_edgeE" depart="55" departLane="4" />
    <vehicle id="straightW_50" type="length_5" route="edgeW_edgeE" depart="56" departLane="random" />
    <vehicle id="rightE_51" type="length_5" route="edgeE_edgeN" depart="56" departLane="0" />
    <vehicle id="leftS_52" type="length_5" route="edgeS_edgeW" depart="58" departLane="4" />
    <vehicle id="straightN_53" type="length_5" route="edgeN_edgeS" depart="60" departLane="random" />
    <vehicle id="rightW_54" type="length_5" route="edgeW_edgeS" depart="62" departLane="0" />
    <vehicle id="uturnS_55" type="length_5" route="edgeS_edgeS" depart="63" departLane="4" />
    <vehicle id="straightW_56" type="length_5" route="edgeW_edgeE" depart="65" departLane="random" />
    <vehicle id="rightN_57" type="length_5" route="edgeN_edgeW" depart="67" departLane="0" />
    <vehicle id="uturnS_58" type="length_5" route="edgeS_edgeS" depart="68" departLane="4" />
    <vehicle id="rightS_59" type="length_5" route="edgeS_edgeE" depart="69" departLane="0" />
    <vehicle id="leftE_60" type="length_5" route="edgeE_edgeS" depart="71" departLane="4" />
    <vehicle id="leftE_61" type="length_5" route="edgeE_edgeS" depart="73" departLane="4" />
    <vehicle id="uturnE_62" type="length_5" route="edgeE_edgeE" depart="74" departLane="4" />
    <vehicle id="leftE_63" type="length_5" route="edgeE_edgeS" depart="75" departLane="4" />
    <vehicle id="straightE_64" type="length_5" route="edgeE_edgeW" depart="77" departLane="random" />
    <vehicle id="rightN_65" type="length_5" route="edgeN_edgeW" depart="83" departLane="0" />
    <vehicle id="straightN_66" type="length_5" route="edgeN_edgeS" depart="84" departLane="random" />
    <vehicle id="uturnE_67" type="length_5" route="edgeE_edgeE" depart="84" departLane="4" />
    <vehicle id="rightW_68" type="length_5" route="edgeW_edgeS" depart="87" departLane="0" />
    <vehicle id="rightS_69" type="length_5" route="edgeS_edgeE" depart="90" departLane="0" />
    <vehicle id="uturnW_70" type="length_5" route="edgeW_edgeW" depart="92" departLane="4" />
    <vehicle id="rightN_71" type="length_5" route="edgeN_edgeW" depart="93" departLane="0" />
    <vehicle id="rightE_72" type="length_5" route="edgeE_edgeN" depart="95" departLane="0" />
    <vehicle id="leftS_73" type="length_5" route="edgeS_edgeW" depart="97" departLane="4" />
    <vehicle id="straightN_74" type="length_5" route="edgeN_edgeS" depart="98" departLane="random" />
    <vehicle id="leftE_75" type="length_5" route="edgeE_edgeS" depart="98" departLane="4" />
    <vehicle id="leftS_76" type="length_5" route="edgeS_edgeW" depart="99" departLane="4" />
    <vehicle id="straightW_77" type="length_5" route="edgeW_edgeE" depart="100" departLane="random" />
    <vehicle id="uturnS_78" type="length_5" route="edgeS_edgeS" depart="102" departLane="4" />
    <vehicle id="rightW_79" type="length_5" route="edgeW_edgeS" depart="102" departLane="0" />
    <vehicle id="rightS_80" type="length_5" route="edgeS_edgeE" depart="103" departLane="0" />
    <vehicle id="uturnE_81" type="length_5" route="edgeE_edgeE" depart="106" departLane="4" />
    <vehicle id="straightW_82" type="length_5" route="edgeW_edgeE" depart="110" departLane="random" />
    <vehicle id="straightS_83" type="length_5" route="edgeS_edgeN" depart="112" departLane="random" />
    <vehicle id="straightS_84" type="length_5" route="edgeS_edgeN" depart="115" departLane="random" />
    <vehicle id="straightW_85" type="length_5" route="edgeW_edgeE" depart="115" departLane="random" />
    <vehicle id="straightS_86" type="length_5" route="edgeS_edgeN" depart="117" departLane="random" />
    <vehicle id="leftE_87" type="length_5" route="edgeE_edgeS" depart="117" departLane="4" />
    <vehicle id="uturnN_88" type="length_5" route="edgeN_edgeN" depart="119" departLane="4" />
    <vehicle id="leftS_89" type="length_5" route="edgeS_edgeW" depart="120" departLane="4" />
    <vehicle id="leftW_90" type="length_5" route="edgeW_edgeN" depart="121" departLane="4" />
    <vehicle id="rightE_91" type="length_5" route="edgeE_edgeN" depart="121" departLane="0" />
    <vehicle id="uturnS_92" type="length_5" route="edgeS_edgeS" depart="122" departLane="4" />
    <vehicle id="leftS_93" type="length_5" route="edgeS_edgeW" depart="124" departLane="4" />
    <vehicle id="straightN_94" type="length_5" route="edgeN_edgeS" depart="125" departLane="random" />
    <vehicle id="uturnW_95" type="length_5" route="edgeW_edgeW" depart="125" departLane="4" />
    <vehicle id="rightS_96" type="length_5" route="edgeS_edgeE" depart="126" departLane="0" />
    <vehicle id="straightE_97" type="length_5" route="edgeE_edgeW" depart="129" departLane="random" />
    <vehicle id="straightW_98" type="length_5" route="edgeW_edgeE" depart="133" departLane="random" />
    <vehicle id="straightW_99" type="length_5" route="edgeW_edgeE" depart="134" departLane="random" />
    <vehicle id="straightS_100" type="length_5" route="edgeS_edgeN" depart="137" departLane="random" />
    <vehicle id="leftE_101" type="length_5" route="edgeE_edgeS" depart="138" departLane="4" />
    <vehicle id="uturnS_102" type="length_5" route="edgeS_edgeS" depart="139" departLane="4" />
    <vehicle id="rightS_103" type="length_5" route="edgeS_edgeE" depart="140" departLane="0" />
    <vehicle id="straightS_104" type="length_5" route="edgeS_edgeN" depart="142" departLane="random" />
    <vehicle id="uturnE_105" type="length_5" route="edgeE_edgeE" depart="142" departLane="4" />
    <vehicle id="leftW_106" type="length_5" route="edgeW_edgeN" depart="143" departLane="4" />
    <vehicle id="uturnE_107" type="length_5" route="edgeE_edgeE" depart="149" departLane="4" />
    <vehicle id="leftS_108" type="length_5" route="edgeS_edgeW" depart="154" departLane="4" />
    <vehicle id="uturnN_109" type="length_5" route="edgeN_edgeN" depart="157" departLane="4" />
    <vehicle id="leftN_110" type="length_5" route="edgeN_edgeE" depart="160" departLane="4" />
    <vehicle id="leftW_111" type="length_5" route="edgeW_edgeN" depart="161" departLane="4" />
    <vehicle id="rightE_112" type="length_5" route="edgeE_edgeN" depart="161" departLane="0" />
    <vehicle id="leftN_113" type="length_5" route="edgeN_edgeE" depart="162" departLane="4" />
    <vehicle id="straightW_114" type="length_5" route="edgeW_edgeE" depart="163" departLane="random" />
    <vehicle id="rightN_115" type="length_5" route="edgeN_edgeW" depart="167" departLane="0" />
    <vehicle id="uturnS_116" type="length_5" route="edgeS_edgeS" depart="168" departLane="4" />
    <vehicle id="uturnW_117" type="length_5" route="edgeW_edgeW" depart="168" departLane="4" />
    <vehicle id="uturnN_118" type="length_5" route="edgeN_edgeN" depart="171" departLane="4" />
    <vehicle id="rightS_119" type="length_5" route="edgeS_edgeE" depart="172" departLane="0" />
    <vehicle id="rightS_120" type="length_5" route="edgeS_edgeE" depart="174" departLane="0" />
    <vehicle id="straightE_121" type="length_5" route="edgeE_edgeW" depart="174" departLane="random" />
    <vehicle id="leftS_122" type="length_5" route="edgeS_edgeW" depart="177" departLane="4" />
    <vehicle id="uturnS_123" type="length_5" route="edgeS_edgeS" depart="179" departLane="4" />
    <vehicle id="rightE_124" type="length_5" route="edgeE_edgeN" depart="179" departLane="0" />
    <vehicle id="straightE_125" type="length_5" route="edgeE_edgeW" depart="180" departLane="random" />
    <vehicle id="rightN_126" type="length_5" route="edgeN_edgeW" depart="181" departLane="0" />
    <vehicle id="leftW_127" type="length_5" route="edgeW_edgeN" depart="182" departLane="4" />
    <vehicle id="straightS_128" type="length_5" route="edgeS_edgeN" depart="183" departLane="random" />
    <vehicle id="uturnN_129" type="length_5" route="edgeN_edgeN" depart="185" departLane="4" />
    <vehicle id="rightW_130" type="length_5" route="edgeW_edgeS" depart="188" departLane="0" />
    <vehicle id="straightW_131" type="length_5" route="edgeW_edgeE" depart="189" departLane="random" />
    <vehicle id="rightE_132" type="length_5" route="edgeE_edgeN" depart="189" departLane="0" />
    <vehicle id="leftN_133" type="length_5" route="edgeN_edgeE" depart="194" departLane="4" />
    <vehicle id="straightS_134" type="length_5" route="edgeS_edgeN" depart="194" departLane="random" />
    <vehicle id="rightW_135" type="length_5" route="edgeW_edgeS" depart="194" departLane="0" />
    <vehicle id="uturnE_136" type="length_5" route="edgeE_edgeE" depart="194" departLane="4" />
    <vehicle id="straightN_137" type="length_5" route="edgeN_edgeS" depart="196" departLane="random" />
    <vehicle id="uturnW_138" type="length_5" route="edgeW_edgeW" depart="197" departLane="4" />
    <vehicle id="uturnN_139" type="length_5" route="edgeN_edgeN" depart="198" departLane="4" />
    <vehicle id="straightE_140" type="length_5" route="edgeE_edgeW" depart="198" departLane="random" />
    <vehicle id="straightS_141" type="length_5" route="edgeS_edgeN" depart="201" departLane="random" />
    <vehicle id="uturnE_142" type="length_5" route="edgeE_edgeE" depart="202" departLane="4" />
    <vehicle id="uturnW_143" type="length_5" route="edgeW_edgeW" depart="203" departLane="4" />
    <vehicle id="leftE_144" type="length_5" route="edgeE_edgeS" depart="203" departLane="4" />
    <vehicle id="leftE_145" type="length_5" route="edgeE_edgeS" depart="204" departLane="4" />
    <vehicle id="rightW_146" type="length_5" route="edgeW_edgeS" depart="206" departLane="0" />
    <vehicle id="rightN_147" type="length_5" route="edgeN_edgeW" depart="208" departLane="0" />
    <vehicle id="rightS_148" type="length_5" route="edgeS_edgeE" depart="210" departLane="0" />
    <vehicle id="rightW_149" type="length_5" route="edgeW_edgeS" depart="210" departLane="0" />
    <vehicle id="straightN_150" type="length_5" route="edgeN_edgeS" depart="211" departLane="random" />
    <vehicle id="leftS_151" type="length_5" route="edgeS_edgeW" depart="211" departLane="4" />
    <vehicle id="leftW_152" type="length_5" route="edgeW_edgeN" depart="213" departLane="4" />
    <vehicle id="leftE_153" type="length_5" route="edgeE_edgeS" depart="213" departLane="4" />
    <vehicle id="uturnW_154" type="length_5" route="edgeW_edgeW" depart="215" departLane="4" />
    <vehicle id="uturnE_155" type="length_5" route="edgeE_edgeE" depart="216" departLane="4" />
    <vehicle id="rightN_156" type="length_5" route="edgeN_edgeW" depart="217" departLane="0" />
    <vehicle id="uturnN_157" type="length_5" route="edgeN_edgeN" depart="218" departLane="4" />
    <vehicle id="uturnS_158" type="length_5" route="edgeS_edgeS" depart="218" departLane="4" />
    <vehicle id="leftS_159" type="length_5" route="edgeS_edgeW" depart="219" departLane="4" />
    <vehicle id="leftW_160" type="length_5" route="edgeW_edgeN" depart="219" departLane="4" />
    <vehicle id="leftE_161" type="length_5" route="edgeE_edgeS" depart="220" departLane="4" />
    <vehicle id="uturnN_162" type="length_5" route="edgeN_edgeN" depart="221" departLane="4" />
    <vehicle id="leftS_163" type="length_5" route="edgeS_edgeW" depart="221" departLane="4" />
    <vehicle id="rightN_164" type="length_5" route="edgeN_edgeW" depart="222" departLane="0" />
    <vehicle id="leftE_165" type="length_5" route="edgeE_edgeS" depart="222" departLane="4" />
    <vehicle id="straightW_166" type="length_5" route="edgeW_edgeE" depart="224" departLane="random" />
    <vehicle id="uturnW_167" type="length_5" route="edgeW_edgeW" depart="225" departLane="4" />
    <vehicle id="leftN_168" type="length_5" route="edgeN_edgeE" depart="228" departLane="4" />
    <vehicle id="leftN_169" type="length_5" route="edgeN_edgeE" depart="229" departLane="4" />
    <vehicle id="rightW_170" type="length_5" route="edgeW_edgeS" depart="229" departLane="0" />
    <vehicle id="leftE_171" type="length_5" route="edgeE_edgeS" depart="229" departLane="4" />
    <vehicle id="leftS_172" type="length_5" route="edgeS_edgeW" depart="232" departLane="4" />
    <vehicle id="rightW_173" type="length_5" route="edgeW_edgeS" depart="232" departLane="0" />
    <vehicle id="straightN_174" type="length_5" route="edgeN_edgeS" depart="233" departLane="random" />
    <vehicle id="rightS_175" type="length_5" route="edgeS_edgeE" depart="235" departLane="0" />
    <vehicle id="leftS_176" type="length_5" route="edgeS_edgeW" depart="237" departLane="4" />
    <vehicle id="leftW_177" type="length_5" route="edgeW_edgeN" depart="238" departLane="4" />
    <vehicle id="leftW_178" type="length_5" route="edgeW_edgeN" depart="239" departLane="4" />
    <vehicle id="rightN_179" type="length_5" route="edgeN_edgeW" depart="240" departLane="0" />
    <vehicle id="straightN_180" type="length_5" route="edgeN_edgeS" depart="241" departLane="random" />
    <vehicle id="leftS_181" type="length_5" route="edgeS_edgeW" depart="241" departLane="4" />
    <vehicle id="straightW_182" type="length_5" route="edgeW_edgeE" depart="242" departLane="random" />
    <vehicle id="rightN_183" type="length_5" route="edgeN_edgeW" depart="243" departLane="0" />
    <vehicle id="uturnW_184" type="length_5" route="edgeW_edgeW" depart="245" departLane="4" />
    <vehicle id="straightE_185" type="length_5" route="edgeE_edgeW" depart="246" departLane="random" />
    <vehicle id="uturnS_186" type="length_5" route="edgeS_edgeS" depart="247" departLane="4" />
    <vehicle id="leftE_187" type="length_5" route="edgeE_edgeS" depart="247" departLane="4" />
    <vehicle id="straightN_188" type="length_5" route="edgeN_edgeS" depart="248" departLane="random" />
    <vehicle id="straightN_189" type="length_5" route="edgeN_edgeS" depart="249" departLane="random" />
    <vehicle id="straightE_190" type="length_5" route="edgeE_edgeW" depart="250" departLane="random" />
    <vehicle id="rightS_191" type="length_5" route="edgeS_edgeE" depart="251" departLane="0" />
    <vehicle id="rightW_192" type="length_5" route="edgeW_edgeS" depart="251" departLane="0" />
    <vehicle id="uturnN_193" type="length_5" route="edgeN_edgeN" depart="252" departLane="4" />
    <vehicle id="straightE_194" type="length_5" route="edgeE_edgeW" depart="252" departLane="random" />
    <vehicle id="rightE_195" type="length_5" route="edgeE_edgeN" depart="253" departLane="0" />
    <vehicle id="uturnS_196" type="length_5" route="edgeS_edgeS" depart="254" departLane="4" />
    <vehicle id="uturnW_197" type="length_5" route="edgeW_edgeW" depart="254" departLane="4" />
    <vehicle id="rightE_198" type="length_5" route="edgeE_edgeN" depart="255" departLane="0" />
    <vehicle id="leftS_199" type="length_5" route="edgeS_edgeW" depart="256" departLane="4" />
    <vehicle id="leftW_200" type="length_5" route="edgeW_edgeN" depart="256" departLane="4" />
    <vehicle id="uturnN_201" type="length_5" route="edgeN_edgeN" depart="257" departLane="4" />
    <vehicle id="leftW_202" type="length_5" route="edgeW_edgeN" depart="257" departLane="4" />
    <vehicle id="rightS_203" type="length_5" route="edgeS_edgeE" depart="258" departLane="0" />
    <vehicle id="rightW_204" type="length_5" route="edgeW_edgeS" depart="258" departLane="0" />
    <vehicle id="straightE_205" type="length_5" route="edgeE_edgeW" depart="259" departLane="random" />
    <vehicle id="straightW_206" type="length_5" route="edgeW_edgeE" depart="260" departLane="random" />
    <vehicle id="straightW_207" type="length_5" route="edgeW_edgeE" depart="262" departLane="random" />
    <vehicle id="rightE_208" type="length_5" route="edgeE_edgeN" depart="263" departLane="0" />
    <vehicle id="straightE_209" type="length_5" route="edgeE_edgeW" depart="266" departLane="random" />
    <vehicle id="rightS_210" type="length_5" route="edgeS_edgeE" depart="267" departLane="0" />
    <vehicle id="uturnN_211" type="length_5" route="edgeN_edgeN" depart="268" departLane="4" />
    <vehicle id="uturnN_212" type="length_5" route="edgeN_edgeN" depart="270" departLane="4" />
    <vehicle id="leftE_213" type="length_5" route="edgeE_edgeS" depart="270" departLane="4" />
    <vehicle id="straightE_214" type="length_5" route="edgeE_edgeW" depart="271" departLane="random" />
    <vehicle id="straightW_215" type="length_5" route="edgeW_edgeE" depart="272" departLane="random" />
    <vehicle id="straightE_216" type="length_5" route="edgeE_edgeW" depart="274" departLane="random" />
    <vehicle id="rightW_217" type="length_5" route="edgeW_edgeS" depart="275" departLane="0" />
    <vehicle id="leftN_218" type="length_5" route="edgeN_edgeE" depart="277" departLane="4" />
    <vehicle id="uturnS_219" type="length_5" route="edgeS_edgeS" depart="277" departLane="4" />
    <vehicle id="straightW_220" type="length_5" route="edgeW_edgeE" depart="279" departLane="random" />
    <vehicle id="straightN_221" type="length_5" route="edgeN_edgeS" depart="280" departLane="random" />
    <vehicle id="leftE_222" type="length_5" route="edgeE_edgeS" depart="281" departLane="4" />
    <vehicle id="rightW_223" type="length_5" route="edgeW_edgeS" depart="283" departLane="0" />
    <vehicle id="straightS_224" type="length_5" route="edgeS_edgeN" depart="285" departLane="random" />
    <vehicle id="straightE_225" type="length_5" route="edgeE_edgeW" depart="286" departLane="random" />
    <vehicle id="straightE_226" type="length_5" route="edgeE_edgeW" depart="287" departLane="random" />
    <vehicle id="rightN_227" type="length_5" route="edgeN_edgeW" depart="288" departLane="0" />
    <vehicle id="straightW_228" type="length_5" route="edgeW_edgeE" depart="288" departLane="random" />
    <vehicle id="leftS_229" type="length_5" route="edgeS_edgeW" depart="290" departLane="4" />
    <vehicle id="leftW_230" type="length_5" route="edgeW_edgeN" depart="293" departLane="4" />
    <vehicle id="rightN_231" type="length_5" route="edgeN_edgeW" depart="296" departLane="0" />
    <vehicle id="rightS_232" type="length_5" route="edgeS_edgeE" depart="297" departLane="0" />
    <vehicle id="straightS_233" type="length_5" route="edgeS_edgeN" depart="299" departLane="random" />
    <vehicle id="uturnW_234" type="length_5" route="edgeW_edgeW" depart="300" departLane="4" />
    <vehicle id="uturnW_235" type="length_5" route="edgeW_edgeW" depart="301" departLane="4" />
    <vehicle id="leftN_236" type="length_5" route="edgeN_edgeE" depart="302" departLane="4" />
    <vehicle id="rightS_237" type="length_5" route="edgeS_edgeE" depart="302" departLane="0" />
    <vehicle id="rightW_238" type="length_5" route="edgeW_edgeS" depart="303" departLane="0" />
    <vehicle id="leftS_239" type="length_5" route="edgeS_edgeW" depart="305" departLane="4" />
    <vehicle id="uturnW_240" type="length_5" route="edgeW_edgeW" depart="306" departLane="4" />
    <vehicle id="straightE_241" type="length_5" route="edgeE_edgeW" depart="306" departLane="random" />
    <vehicle id="straightW_242" type="length_5" route="edgeW_edgeE" depart="307" departLane="random" />
    <vehicle id="rightW_243" type="length_5" route="edgeW_edgeS" depart="310" departLane="0" />
    <vehicle id="uturnN_244" type="length_5" route="edgeN_edgeN" depart="312" departLane="4" />
    <vehicle id="uturnE_245" type="length_5" route="edgeE_edgeE" depart="313" departLane="4" />
    <vehicle id="uturnN_246" type="length_5" route="edgeN_edgeN" depart="315" departLane="4" />
    <vehicle id="leftS_247" type="length_5" route="edgeS_edgeW" depart="326" departLane="4" />
    <vehicle id="uturnE_248" type="length_5" route="edgeE_edgeE" depart="326" departLane="4" />
    <vehicle id="straightW_249" type="length_5" route="edgeW_edgeE" depart="328" departLane="random" />
    <vehicle id="straightE_250" type="length_5" route="edgeE_edgeW" depart="328" departLane="random" />
    <vehicle id="uturnN_251" type="length_5" route="edgeN_edgeN" depart="329" departLane="4" />
    <vehicle id="straightW_252" type="length_5" route="edgeW_edgeE" depart="329" departLane="random" />
    <vehicle id="uturnS_253" type="length_5" route="edgeS_edgeS" depart="330" departLane="4" />
    <vehicle id="leftW_254" type="length_5" route="edgeW_edgeN" depart="331" departLane="4" />
    <vehicle id="straightE_255" type="length_5" route="edgeE_edgeW" depart="332" departLane="random" />
    <vehicle id="leftE_256" type="length_5" route="edgeE_edgeS" depart="334" departLane="4" />
    <vehicle id="leftE_257" type="length_5" route="edgeE_edgeS" depart="336" departLane="4" />
    <vehicle id="uturnN_258" type="length_5" route="edgeN_edgeN" depart="337" departLane="4" />
    <vehicle id="rightW_259" type="length_5" route="edgeW_edgeS" depart="337" departLane="0" />
    <vehicle id="uturnS_260" type="length_5" route="edgeS_edgeS" depart="338" departLane="4" />
    <vehicle id="leftE_261" type="length_5" route="edgeE_edgeS" depart="338" departLane="4" />
    <vehicle id="uturnE_262" type="length_5" route="edgeE_edgeE" depart="339" departLane="4" />
    <vehicle id="rightW_263" type="length_5" route="edgeW_edgeS" depart="342" departLane="0" />
    <vehicle id="straightS_264" type="length_5" route="edgeS_edgeN" depart="348" departLane="random" />
    <vehicle id="uturnW_265" type="length_5" route="edgeW_edgeW" depart="348" departLane="4" />
    <vehicle id="straightN_266" type="length_5" route="edgeN_edgeS" depart="350" departLane="random" />
    <vehicle id="uturnW_267" type="length_5" route="edgeW_edgeW" depart="350" departLane="4" />
    <vehicle id="rightN_268" type="length_5" route="edgeN_edgeW" depart="352" departLane="0" />
    <vehicle id="leftW_269" type="length_5" route="edgeW_edgeN" depart="352" departLane="4" />
    <vehicle id="uturnE_270" type="length_5" route="edgeE_edgeE" depart="352" departLane="4" />
    <vehicle id="uturnE_271" type="length_5" route="edgeE_edgeE" depart="356" departLane="4" />
    <vehicle id="leftW_272" type="length_5" route="edgeW_edgeN" depart="357" departLane="4" />
    <vehicle id="straightS_273" type="length_5" route="edgeS_edgeN" depart="359" departLane="random" />
    <vehicle id="uturnW_274" type="length_5" route="edgeW_edgeW" depart="359" departLane="4" />
    <vehicle id="leftN_275" type="length_5" route="edgeN_edgeE" depart="360" departLane="4" />
    <vehicle id="leftE_276" type="length_5" route="edgeE_edgeS" depart="360" departLane="4" />
    <vehicle id="rightN_277" type="length_5" route="edgeN_edgeW" depart="362" departLane="0" />
    <vehicle id="straightN_278" type="length_5" route="edgeN_edgeS" depart="364" departLane="random" />
    <vehicle id="straightW_279" type="length_5" route="edgeW_edgeE" depart="364" departLane="random" />
    <vehicle id="rightN_280" type="length_5" route="edgeN_edgeW" depart="365" departLane="0" />
    <vehicle id="uturnN_281" type="length_5" route="edgeN_edgeN" depart="366" departLane="4" />
    <vehicle id="straightE_282" type="length_5" route="edgeE_edgeW" depart="368" departLane="random" />
    <vehicle id="straightN_283" type="length_5" route="edgeN_edgeS" depart="370" departLane="random" />
    <vehicle id="straightS_284" type="length_5" route="edgeS_edgeN" depart="371" departLane="random" />
    <vehicle id="leftE_285" type="length_5" route="edgeE_edgeS" depart="372" departLane="4" />
    <vehicle id="straightE_286" type="length_5" route="edgeE_edgeW" depart="377" departLane="random" />
    <vehicle id="uturnN_287" type="length_5" route="edgeN_edgeN" depart="378" departLane="4" />
    <vehicle id="rightS_288" type="length_5" route="edgeS_edgeE" depart="378" departLane="0" />
    <vehicle id="rightN_289" type="length_5" route="edgeN_edgeW" depart="381" departLane="0" />
    <vehicle id="uturnS_290" type="length_5" route="edgeS_edgeS" depart="381" departLane="4" />
    <vehicle id="leftS_291" type="length_5" route="edgeS_edgeW" depart="382" departLane="4" />
    <vehicle id="uturnS_292" type="length_5" route="edgeS_edgeS" depart="384" departLane="4" />
    <vehicle id="uturnW_293" type="length_5" route="edgeW_edgeW" depart="384" departLane="4" />
    <vehicle id="uturnE_294" type="length_5" route="edgeE_edgeE" depart="384" departLane="4" />
    <vehicle id="rightN_295" type="length_5" route="edgeN_edgeW" depart="385" departLane="0" />
    <vehicle id="uturnS_296" type="length_5" route="edgeS_edgeS" depart="385" departLane="4" />
    <vehicle id="leftW_297" type="length_5" route="edgeW_edgeN" depart="385" departLane="4" />