<?xml version="1.0" encoding="UTF-8"?>

<!-- generated on 2021-11-02 19:30:07 by Eclipse SUMO netconvert Version 1.10.0
<configuration xmlns:xsi="http://www.w3.org/2001/XMLSchema-instance" xsi:noNamespaceSchemaLocation="http://sumo.dlr.de/xsd/netconvertConfiguration.xsd">

    <input>
        <node-files value="data/cross.nod.xml"/>
        <edge-files value="data/cross.edg.xml"/>
        <connection-files value="data/cross.con.xml"/>
    </input>

    <output>
        <output-file value="data/cross.net.xml"/>
    </output>

    <junctions>
        <no-turnarounds.except-turnlane value="true"/>
    </junctions>

    <report>
        <aggregate-warnings value="5"/>
    </report>

</configuration>
-->

<net version="1.9" junctionCornerDetail="5" limitTurnSpeed="5.50" xmlns:xsi="http://www.w3.org/2001/XMLSchema-instance" xsi:noNamespaceSchemaLocation="http://sumo.dlr.de/xsd/net_file.xsd">

    <location netOffset="600.00,700.00" convBoundary="0.00,0.00,1100.00,1400.00" origBoundary="-600.00,-700.00,500.00,700.00" projParameter="!"/>

    <edge id=":juncE_0" function="internal">
        <lane id=":juncE_0_0" index="0" disallow="pedestrian" speed="3.65" length="4.67" shape="1100.00,698.40 1101.20,699.20 1101.60,700.00 1101.20,700.80 1100.00,701.60"/>
    </edge>
    <edge id=":juncE_w0" function="walkingarea">
        <lane id=":juncE_w0_0" index="0" allow="pedestrian" speed="1.00" length="28.80" width="3.20" shape="1100.00,712.80 1100.00,716.00 1100.00,684.00 1100.00,687.20"/>
    </edge>
    <edge id=":juncMain_0" function="internal">
        <lane id=":juncMain_0_0" index="0" disallow="pedestrian" speed="6.86" length="5.34" shape="588.80,717.50 588.41,714.74 587.22,712.78 587.00,712.64"/>
    </edge>
    <edge id=":juncMain_1" function="internal">
        <lane id=":juncMain_1_0" index="0" disallow="pedestrian" speed="15.22" length="35.00" shape="592.00,717.50 592.00,682.50"/>
        <lane id=":juncMain_1_1" index="1" disallow="pedestrian" speed="15.22" length="35.00" shape="595.20,717.50 595.20,682.50"/>
        <lane id=":juncMain_1_2" index="2" disallow="pedestrian" speed="15.22" length="35.00" shape="598.40,717.50 598.40,682.50"/>
    </edge>
    <edge id=":juncMain_18" function="internal">
        <lane id=":juncMain_18_0" index="0" disallow="pedestrian" speed="6.86" length="4.82" shape="587.00,712.64 585.26,711.59 582.50,711.20"/>
    </edge>
    <edge id=":juncMain_4" function="internal">
        <lane id=":juncMain_4_0" index="0" disallow="pedestrian" speed="6.86" length="5.34" shape="617.50,711.20 614.74,711.59 612.78,712.78 612.64,713.00"/>
    </edge>
    <edge id=":juncMain_5" function="internal">
        <lane id=":juncMain_5_0" index="0" disallow="pedestrian" speed="17.93" length="35.00" shape="617.50,711.20 582.50,711.20"/>
        <lane id=":juncMain_5_1" index="1" disallow="pedestrian" speed="17.93" length="35.00" shape="617.50,708.00 582.50,708.00"/>
        <lane id=":juncMain_5_2" index="2" disallow="pedestrian" speed="17.93" length="35.00" shape="617.50,704.80 582.50,704.80"/>
        <lane id=":juncMain_5_3" index="3" disallow="pedestrian" speed="17.93" length="35.00" shape="617.50,701.60 582.50,701.60"/>
    </edge>
    <edge id=":juncMain_19" function="internal">
        <lane id=":juncMain_19_0" index="0" disallow="pedestrian" speed="6.86" length="4.82" shape="612.64,713.00 611.59,714.74 611.20,717.50"/>
    </edge>
    <edge id=":juncMain_9" function="internal">
        <lane id=":juncMain_9_0" index="0" disallow="pedestrian" speed="6.86" length="5.34" shape="611.20,682.50 611.59,685.26 612.78,687.22 613.00,687.36"/>
    </edge>
    <edge id=":juncMain_10" function="internal">
        <lane id=":juncMain_10_0" index="0" disallow="pedestrian" speed="15.22" length="35.00" shape="608.00,682.50 608.00,717.50"/>
        <lane id=":juncMain_10_1" index="1" disallow="pedestrian" speed="15.22" length="35.00" shape="604.80,682.50 604.80,717.50"/>
        <lane id=":juncMain_10_2" index="2" disallow="pedestrian" speed="15.22" length="35.00" shape="601.60,682.50 601.60,717.50"/>
    </edge>
    <edge id=":juncMain_20" function="internal">
        <lane id=":juncMain_20_0" index="0" disallow="pedestrian" speed="6.86" length="4.82" shape="613.00,687.36 614.74,688.41 617.50,688.80"/>
    </edge>
    <edge id=":juncMain_13" function="internal">
        <lane id=":juncMain_13_0" index="0" disallow="pedestrian" speed="6.86" length="5.34" shape="582.50,688.80 585.26,688.41 587.22,687.22 587.36,687.00"/>
    </edge>
    <edge id=":juncMain_14" function="internal">
        <lane id=":juncMain_14_0" index="0" disallow="pedestrian" speed="17.93" length="35.00" shape="582.50,688.80 617.50,688.80"/>
        <lane id=":juncMain_14_1" index="1" disallow="pedestrian" speed="17.93" length="35.00" shape="582.50,692.00 617.50,692.00"/>
        <lane id=":juncMain_14_2" index="2" disallow="pedestrian" speed="17.93" length="35.00" shape="582.50,695.20 617.50,695.20"/>
        <lane id=":juncMain_14_3" index="3" disallow="pedestrian" speed="17.93" length="35.00" shape="582.50,698.40 617.50,698.40"/>
    </edge>
    <edge id=":juncMain_21" function="internal">
        <lane id=":juncMain_21_0" index="0" disallow="pedestrian" speed="6.86" length="4.82" shape="587.36,687.00 588.41,685.26 588.80,682.50"/>
    </edge>
    <edge id=":juncMain_c0" function="crossing" crossingEdges="edgeN_I edgeN_O">
        <lane id=":juncMain_c0_0" index="0" allow="pedestrian" speed="1.00" length="25.60" width="4.50" shape="612.80,715.25 587.20,715.25"/>
    </edge>
    <edge id=":juncMain_c1" function="crossing" crossingEdges="edgeE_I edgeE_O">
        <lane id=":juncMain_c1_0" index="0" allow="pedestrian" speed="1.00" length="25.60" width="4.50" shape="615.25,687.20 615.25,712.80"/>
    </edge>
    <edge id=":juncMain_c2" function="crossing" crossingEdges="edgeS_I edgeS_O">
        <lane id=":juncMain_c2_0" index="0" allow="pedestrian" speed="1.00" length="25.60" width="4.50" shape="587.20,684.75 612.80,684.75"/>
    </edge>
    <edge id=":juncMain_c3" function="crossing" crossingEdges="edgeW_I edgeW_O">
        <lane id=":juncMain_c3_0" index="0" allow="pedestrian" speed="1.00" length="25.60" width="4.50" shape="584.75,712.80 584.75,687.20"/>
    </edge>
    <edge id=":juncMain_w0" function="walkingarea">
        <lane id=":juncMain_w0_0" index="0" allow="pedestrian" speed="1.00" length="3.82" width="4.50" shape="582.50,712.80 582.50,716.00 584.00,717.50 587.20,717.50 587.07,716.06 586.68,714.89 586.02,713.98 585.11,713.32 583.94,712.93"/>
    </edge>
    <edge id=":juncMain_w1" function="walkingarea">
        <lane id=":juncMain_w1_0" index="0" allow="pedestrian" speed="1.00" length="3.82" width="4.50" shape="612.80,717.50 616.00,717.50 617.50,716.00 617.50,712.80 616.06,712.93 614.89,713.32 613.98,713.98 613.32,714.89 612.93,716.06"/>
    </edge>
    <edge id=":juncMain_w2" function="walkingarea">
        <lane id=":juncMain_w2_0" index="0" allow="pedestrian" speed="1.00" length="3.82" width="4.50" shape="617.50,687.20 617.50,684.00 616.00,682.50 612.80,682.50 612.93,683.94 613.32,685.11 613.98,686.02 614.89,686.68 616.06,687.07"/>
    </edge>
    <edge id=":juncMain_w3" function="walkingarea">
        <lane id=":juncMain_w3_0" index="0" allow="pedestrian" speed="1.00" length="3.82" width="4.50" shape="587.20,682.50 584.00,682.50 582.50,684.00 582.50,687.20 583.94,687.07 585.11,686.68 586.02,686.02 586.68,685.11 587.07,683.94"/>
    </edge>
    <edge id=":juncN_0" function="internal">
        <lane id=":juncN_0_0" index="0" disallow="pedestrian" speed="3.65" length="4.67" shape="601.60,1400.00 600.80,1401.20 600.00,1401.60 599.20,1401.20 598.40,1400.00"/>
    </edge>
    <edge id=":juncN_w0" function="walkingarea">
        <lane id=":juncN_w0_0" index="0" allow="pedestrian" speed="1.00" length="28.80" width="3.20" shape="587.20,1400.00 584.00,1400.00 616.00,1400.00 612.80,1400.00"/>
    </edge>
    <edge id=":juncS_0" function="internal">
        <lane id=":juncS_0_0" index="0" disallow="pedestrian" speed="3.65" length="4.67" shape="598.40,0.00 599.20,-1.20 600.00,-1.60 600.80,-1.20 601.60,0.00"/>
    </edge>
    <edge id=":juncS_w0" function="walkingarea">
        <lane id=":juncS_w0_0" index="0" allow="pedestrian" speed="1.00" length="28.80" width="3.20" shape="612.80,0.00 616.00,0.00 584.00,0.00 587.20,0.00"/>
    </edge>
    <edge id=":juncW_0" function="internal">
        <lane id=":juncW_0_0" index="0" disallow="pedestrian" speed="3.65" length="4.67" shape="0.00,701.60 -1.20,700.80 -1.60,700.00 -1.20,699.20 0.00,698.40"/>
    </edge>
    <edge id=":juncW_w0" function="walkingarea">
        <lane id=":juncW_w0_0" index="0" allow="pedestrian" speed="1.00" length="28.80" width="3.20" shape="0.00,687.20 0.00,684.00 0.00,716.00 0.00,712.80"/>
    </edge>

    <edge id="edgeE_I" from="juncMain" to="juncE" priority="46">
        <lane id="edgeE_I_0" index="0" allow="pedestrian" speed="17.74" length="482.50" shape="617.50,685.60 1100.00,685.60"/>
        <lane id="edgeE_I_1" index="1" disallow="pedestrian" speed="17.74" length="482.50" shape="617.50,688.80 1100.00,688.80"/>
        <lane id="edgeE_I_2" index="2" disallow="pedestrian" speed="17.74" length="482.50" shape="617.50,692.00 1100.00,692.00"/>
        <lane id="edgeE_I_3" index="3" disallow="pedestrian" speed="17.74" length="482.50" shape="617.50,695.20 1100.00,695.20"/>
        <lane id="edgeE_I_4" index="4" disallow="pedestrian" speed="17.74" length="482.50" shape="617.50,698.40 1100.00,698.40"/>
    </edge>
    <edge id="edgeE_O" from="juncE" to="juncMain" priority="78">
        <lane id="edgeE_O_0" index="0" allow="pedestrian" speed="18.12" length="482.50" shape="1100.00,714.40 617.50,714.40"/>
        <lane id="edgeE_O_1" index="1" disallow="pedestrian" speed="18.12" length="482.50" shape="1100.00,711.20 617.50,711.20"/>
        <lane id="edgeE_O_2" index="2" disallow="pedestrian" speed="18.12" length="482.50" shape="1100.00,708.00 617.50,708.00"/>
        <lane id="edgeE_O_3" index="3" disallow="pedestrian" speed="18.12" length="482.50" shape="1100.00,704.80 617.50,704.80"/>
        <lane id="edgeE_O_4" index="4" disallow="pedestrian" speed="18.12" length="482.50" shape="1100.00,701.60 617.50,701.60"/>
    </edge>
    <edge id="edgeN_I" from="juncMain" to="juncN" priority="46">
        <lane id="edgeN_I_0" index="0" allow="pedestrian" speed="12.95" length="682.50" shape="614.40,717.50 614.40,1400.00"/>
        <lane id="edgeN_I_1" index="1" disallow="pedestrian" speed="12.95" length="682.50" shape="611.20,717.50 611.20,1400.00"/>
        <lane id="edgeN_I_2" index="2" disallow="pedestrian" speed="12.95" length="682.50" shape="608.00,717.50 608.00,1400.00"/>
        <lane id="edgeN_I_3" index="3" disallow="pedestrian" speed="12.95" length="682.50" shape="604.80,717.50 604.80,1400.00"/>
        <lane id="edgeN_I_4" index="4" disallow="pedestrian" speed="12.95" length="682.50" shape="601.60,717.50 601.60,1400.00"/>
    </edge>
    <edge id="edgeN_O" from="juncN" to="juncMain" priority="78">
        <lane id="edgeN_O_0" index="0" allow="pedestrian" speed="17.48" length="682.50" shape="585.60,1400.00 585.60,717.50"/>
        <lane id="edgeN_O_1" index="1" disallow="pedestrian" speed="17.48" length="682.50" shape="588.80,1400.00 588.80,717.50"/>
        <lane id="edgeN_O_2" index="2" disallow="pedestrian" speed="17.48" length="682.50" shape="592.00,1400.00 592.00,717.50"/>
        <lane id="edgeN_O_3" index="3" disallow="pedestrian" speed="17.48" length="682.50" shape="595.20,1400.00 595.20,717.50"/>
        <lane id="edgeN_O_4" index="4" disallow="pedestrian" speed="17.48" length="682.50" shape="598.40,1400.00 598.40,717.50"/>
    </edge>
    <edge id="edgeS_I" from="juncMain" to="juncS" priority="46">
        <lane id="edgeS_I_0" index="0" allow="pedestrian" speed="12.95" length="682.50" shape="585.60,682.50 585.60,0.00"/>
        <lane id="edgeS_I_1" index="1" disallow="pedestrian" speed="12.95" length="682.50" shape="588.80,682.50 588.80,0.00"/>
        <lane id="edgeS_I_2" index="2" disallow="pedestrian" speed="12.95" length="682.50" shape="592.00,682.50 592.00,0.00"/>
        <lane id="edgeS_I_3" index="3" disallow="pedestrian" speed="12.95" length="682.50" shape="595.20,682.50 595.20,0.00"/>
        <lane id="edgeS_I_4" index="4" disallow="pedestrian" speed="12.95" length="682.50" shape="598.40,682.50 598.40,0.00"/>
    </edge>
    <edge id="edgeS_O" from="juncS" to="juncMain" priority="78">
        <lane id="edgeS_O_0" index="0" allow="pedestrian" speed="17.48" length="682.50" shape="614.40,0.00 614.40,682.50"/>
        <lane id="edgeS_O_1" index="1" disallow="pedestrian" speed="17.48" length="682.50" shape="611.20,0.00 611.20,682.50"/>
        <lane id="edgeS_O_2" index="2" disallow="pedestrian" speed="17.48" length="682.50" shape="608.00,0.00 608.00,682.50"/>
        <lane id="edgeS_O_3" index="3" disallow="pedestrian" speed="17.48" length="682.50" shape="604.80,0.00 604.80,682.50"/>
        <lane id="edgeS_O_4" index="4" disallow="pedestrian" speed="17.48" length="682.50" shape="601.60,0.00 601.60,682.50"/>
    </edge>
    <edge id="edgeW_I" from="juncMain" to="juncW" priority="46">
        <lane id="edgeW_I_0" index="0" allow="pedestrian" speed="17.74" length="582.50" shape="582.50,714.40 0.00,714.40"/>
        <lane id="edgeW_I_1" index="1" disallow="pedestrian" speed="17.74" length="582.50" shape="582.50,711.20 0.00,711.20"/>
        <lane id="edgeW_I_2" index="2" disallow="pedestrian" speed="17.74" length="582.50" shape="582.50,708.00 0.00,708.00"/>
        <lane id="edgeW_I_3" index="3" disallow="pedestrian" speed="17.74" length="582.50" shape="582.50,704.80 0.00,704.80"/>
        <lane id="edgeW_I_4" index="4" disallow="pedestrian" speed="17.74" length="582.50" shape="582.50,701.60 0.00,701.60"/>
    </edge>
    <edge id="edgeW_O" from="juncW" to="juncMain" priority="78">
        <lane id="edgeW_O_0" index="0" allow="pedestrian" speed="18.12" length="582.50" shape="0.00,685.60 582.50,685.60"/>
        <lane id="edgeW_O_1" index="1" disallow="pedestrian" speed="18.12" length="582.50" shape="0.00,688.80 582.50,688.80"/>
        <lane id="edgeW_O_2" index="2" disallow="pedestrian" speed="18.12" length="582.50" shape="0.00,692.00 582.50,692.00"/>
        <lane id="edgeW_O_3" index="3" disallow="pedestrian" speed="18.12" length="582.50" shape="0.00,695.20 582.50,695.20"/>
        <lane id="edgeW_O_4" index="4" disallow="pedestrian" speed="18.12" length="582.50" shape="0.00,698.40 582.50,698.40"/>
    </edge>

    <tlLogic id="juncMain" type="static" programID="0" offset="0">
        <phase duration="36" state="rrrrgGGGGrrrrgGGGGGrGr"/>
        <phase duration="5"  state="rrrrgGGGGrrrrgGGGGrrrr"/>
        <phase duration="4"  state="rrrryyyyyrrrryyyyyrrrr"/>
        <phase duration="36" state="gGGGrrrrrgGGGrrrrrrGrG"/>
        <phase duration="5"  state="gGGGrrrrrgGGGrrrrrrrrr"/>
        <phase duration="4"  state="yyyyrrrrryyyyrrrrrrrrr"/>
    </tlLogic>

    <junction id="juncE" type="priority" x="1100.00" y="700.00" incLanes="edgeE_I_0 edgeE_I_1 edgeE_I_2 edgeE_I_3 edgeE_I_4" intLanes=":juncE_0_0" shape="1100.00,700.00 1100.00,684.00 1100.00,700.00">
        <request index="0" response="0" foes="0" cont="0"/>
    </junction>
    <junction id="juncMain" type="traffic_light" x="600.00" y="700.00" incLanes="edgeN_O_0 edgeN_O_1 edgeN_O_2 edgeN_O_3 edgeN_O_4 edgeE_O_0 edgeE_O_1 edgeE_O_2 edgeE_O_3 edgeE_O_4 edgeS_O_0 edgeS_O_1 edgeS_O_2 edgeS_O_3 edgeS_O_4 edgeW_O_0 edgeW_O_1 edgeW_O_2 edgeW_O_3 edgeW_O_4 :juncMain_w1_0 :juncMain_w2_0 :juncMain_w3_0 :juncMain_w0_0" intLanes=":juncMain_18_0 :juncMain_1_0 :juncMain_1_1 :juncMain_1_2 :juncMain_19_0 :juncMain_5_0 :juncMain_5_1 :juncMain_5_2 :juncMain_5_3 :juncMain_20_0 :juncMain_10_0 :juncMain_10_1 :juncMain_10_2 :juncMain_21_0 :juncMain_14_0 :juncMain_14_1 :juncMain_14_2 :juncMain_14_3 :juncMain_c0_0 :juncMain_c1_0 :juncMain_c2_0 :juncMain_c3_0" shape="584.00,717.50 616.00,717.50 616.17,716.67 616.38,716.38 616.67,716.17 617.04,716.04 617.50,716.00 617.50,684.00 616.67,683.83 616.38,683.62 616.17,683.33 616.04,682.96 616.00,682.50 584.00,682.50 583.83,683.33 583.62,683.62 583.33,683.83 582.96,683.96 582.50,684.00 582.50,716.00 583.33,716.17 583.62,716.38 583.83,716.67 583.96,717.04">
        <request index="0"  response="1001000000000111100000" foes="1001000000000111100000" cont="1"/>
        <request index="1"  response="0101111100000111100000" foes="0101111100000111100000" cont="0"/>
        <request index="2"  response="0101111100000111100000" foes="0101111100000111100000" cont="0"/>
        <request index="3"  response="0101111100000111100000" foes="0101111100000111100000" cont="0"/>
        <request index="4"  response="0011000000000000000000" foes="0011000000000000000000" cont="1"/>
        <request index="5"  response="1010000000000000000001" foes="1010000001110000001111" cont="0"/>
        <request index="6"  response="1010000000000000000001" foes="1010000001110000001111" cont="0"/>
        <request index="7"  response="1010000000000000000001" foes="1010000001110000001111" cont="0"/>
        <request index="8"  response="1010000000000000000001" foes="1010000001110000001111" cont="0"/>
        <request index="9"  response="0110111100000000000000" foes="0110111100000000000000" cont="1"/>
        <request index="10" response="0101111100000111100000" foes="0101111100000111100000" cont="0"/>
        <request index="11" response="0101111100000111100000" foes="0101111100000111100000" cont="0"/>
        <request index="12" response="0101111100000111100000" foes="0101111100000111100000" cont="0"/>
        <request index="13" response="1100000000000000000000" foes="1100000000000000000000" cont="1"/>
        <request index="14" response="1010000000001000000000" foes="1010000001111000001110" cont="0"/>
        <request index="15" response="1010000000001000000000" foes="1010000001111000001110" cont="0"/>
        <request index="16" response="1010000000001000000000" foes="1010000001111000001110" cont="0"/>
        <request index="17" response="1010000000001000000000" foes="1010000001111000001110" cont="0"/>
        <request index="18" response="0000000000000000000000" foes="0000000001110000011111" cont="0"/>
        <request index="19" response="0000000000000000000000" foes="0000111100001111110000" cont="0"/>
        <request index="20" response="0000000000000000000000" foes="0000000011111000001110" cont="0"/>
        <request index="21" response="0000000000000000000000" foes="0000111110000111100001" cont="0"/>
    </junction>
    <junction id="juncN" type="priority" x="600.00" y="1400.00" incLanes="edgeN_I_0 edgeN_I_1 edgeN_I_2 edgeN_I_3 edgeN_I_4" intLanes=":juncN_0_0" shape="600.00,1400.00 616.00,1400.00 600.00,1400.00">
        <request index="0" response="0" foes="0" cont="0"/>
    </junction>
    <junction id="juncS" type="priority" x="600.00" y="0.00" incLanes="edgeS_I_0 edgeS_I_1 edgeS_I_2 edgeS_I_3 edgeS_I_4" intLanes=":juncS_0_0" shape="600.00,0.00 584.00,0.00 600.00,0.00">
        <request index="0" response="0" foes="0" cont="0"/>
    </junction>
    <junction id="juncW" type="priority" x="0.00" y="700.00" incLanes="edgeW_I_0 edgeW_I_1 edgeW_I_2 edgeW_I_3 edgeW_I_4" intLanes=":juncW_0_0" shape="0.00,700.00 0.00,716.00 0.00,700.00">
        <request index="0" response="0" foes="0" cont="0"/>
    </junction>

    <junction id=":juncMain_18_0" type="internal" x="587.00" y="712.64" incLanes=":juncMain_0_0" intLanes=":juncMain_5_0 :juncMain_5_1 :juncMain_5_2 :juncMain_5_3 :juncMain_c0_0 :juncMain_c3_0"/>
    <junction id=":juncMain_19_0" type="internal" x="612.64" y="713.00" incLanes=":juncMain_4_0" intLanes=":juncMain_c0_0 :juncMain_c1_0"/>
    <junction id=":juncMain_20_0" type="internal" x="613.00" y="687.36" incLanes=":juncMain_9_0" intLanes=":juncMain_14_0 :juncMain_14_1 :juncMain_14_2 :juncMain_14_3 :juncMain_c1_0 :juncMain_c2_0"/>
    <junction id=":juncMain_21_0" type="internal" x="587.36" y="687.00" incLanes=":juncMain_13_0" intLanes=":juncMain_c2_0 :juncMain_c3_0"/>

    <connection from="edgeE_I" to="edgeE_O" fromLane="4" toLane="4" via=":juncE_0_0" dir="t" state="M"/>
    <connection from="edgeE_O" to="edgeN_I" fromLane="1" toLane="1" via=":juncMain_4_0" tl="juncMain" linkIndex="4" dir="r" state="o"/>
    <connection from="edgeE_O" to="edgeW_I" fromLane="1" toLane="1" via=":juncMain_5_0" tl="juncMain" linkIndex="5" dir="s" state="o"/>
    <connection from="edgeE_O" to="edgeW_I" fromLane="2" toLane="2" via=":juncMain_5_1" tl="juncMain" linkIndex="6" dir="s" state="o"/>
    <connection from="edgeE_O" to="edgeW_I" fromLane="3" toLane="3" via=":juncMain_5_2" tl="juncMain" linkIndex="7" dir="s" state="o"/>
    <connection from="edgeE_O" to="edgeW_I" fromLane="4" toLane="4" via=":juncMain_5_3" tl="juncMain" linkIndex="8" dir="s" state="o"/>
    <connection from="edgeN_I" to="edgeN_O" fromLane="4" toLane="4" via=":juncN_0_0" dir="t" state="M"/>
    <connection from="edgeN_O" to="edgeW_I" fromLane="1" toLane="1" via=":juncMain_0_0" tl="juncMain" linkIndex="0" dir="r" state="o"/>
    <connection from="edgeN_O" to="edgeS_I" fromLane="2" toLane="2" via=":juncMain_1_0" tl="juncMain" linkIndex="1" dir="s" state="o"/>
    <connection from="edgeN_O" to="edgeS_I" fromLane="3" toLane="3" via=":juncMain_1_1" tl="juncMain" linkIndex="2" dir="s" state="o"/>
    <connection from="edgeN_O" to="edgeS_I" fromLane="4" toLane="4" via=":juncMain_1_2" tl="juncMain" linkIndex="3" dir="s" state="o"/>
    <connection from="edgeS_I" to="edgeS_O" fromLane="4" toLane="4" via=":juncS_0_0" dir="t" state="M"/>
    <connection from="edgeS_O" to="edgeE_I" fromLane="1" toLane="1" via=":juncMain_9_0" tl="juncMain" linkIndex="9" dir="r" state="o"/>
    <connection from="edgeS_O" to="edgeN_I" fromLane="2" toLane="2" via=":juncMain_10_0" tl="juncMain" linkIndex="10" dir="s" state="o"/>
    <connection from="edgeS_O" to="edgeN_I" fromLane="3" toLane="3" via=":juncMain_10_1" tl="juncMain" linkIndex="11" dir="s" state="o"/>
    <connection from="edgeS_O" to="edgeN_I" fromLane="4" toLane="4" via=":juncMain_10_2" tl="juncMain" linkIndex="12" dir="s" state="o"/>
    <connection from="edgeW_I" to="edgeW_O" fromLane="4" toLane="4" via=":juncW_0_0" dir="t" state="M"/>
    <connection from="edgeW_O" to="edgeS_I" fromLane="1" toLane="1" via=":juncMain_13_0" tl="juncMain" linkIndex="13" dir="r" state="o"/>
    <connection from="edgeW_O" to="edgeE_I" fromLane="1" toLane="1" via=":juncMain_14_0" tl="juncMain" linkIndex="14" dir="s" state="o"/>
    <connection from="edgeW_O" to="edgeE_I" fromLane="2" toLane="2" via=":juncMain_14_1" tl="juncMain" linkIndex="15" dir="s" state="o"/>
    <connection from="edgeW_O" to="edgeE_I" fromLane="3" toLane="3" via=":juncMain_14_2" tl="juncMain" linkIndex="16" dir="s" state="o"/>
    <connection from="edgeW_O" to="edgeE_I" fromLane="4" toLane="4" via=":juncMain_14_3" tl="juncMain" linkIndex="17" dir="s" state="o"/>

    <connection from=":juncE_0" to="edgeE_O" fromLane="0" toLane="4" dir="t" state="M"/>
    <connection from=":juncMain_0" to="edgeW_I" fromLane="0" toLane="1" via=":juncMain_18_0" dir="r" state="m"/>
    <connection from=":juncMain_18" to="edgeW_I" fromLane="0" toLane="1" dir="r" state="M"/>
    <connection from=":juncMain_1" to="edgeS_I" fromLane="0" toLane="2" dir="s" state="M"/>
    <connection from=":juncMain_1" to="edgeS_I" fromLane="1" toLane="3" dir="s" state="M"/>
    <connection from=":juncMain_1" to="edgeS_I" fromLane="2" toLane="4" dir="s" state="M"/>
    <connection from=":juncMain_4" to="edgeN_I" fromLane="0" toLane="1" via=":juncMain_19_0" dir="r" state="m"/>
    <connection from=":juncMain_19" to="edgeN_I" fromLane="0" toLane="1" dir="r" state="M"/>
    <connection from=":juncMain_5" to="edgeW_I" fromLane="0" toLane="1" dir="s" state="M"/>
    <connection from=":juncMain_5" to="edgeW_I" fromLane="1" toLane="2" dir="s" state="M"/>
    <connection from=":juncMain_5" to="edgeW_I" fromLane="2" toLane="3" dir="s" state="M"/>
    <connection from=":juncMain_5" to="edgeW_I" fromLane="3" toLane="4" dir="s" state="M"/>
    <connection from=":juncMain_9" to="edgeE_I" fromLane="0" toLane="1" via=":juncMain_20_0" dir="r" state="m"/>
    <connection from=":juncMain_20" to="edgeE_I" fromLane="0" toLane="1" dir="r" state="M"/>
    <connection from=":juncMain_10" to="edgeN_I" fromLane="0" toLane="2" dir="s" state="M"/>
    <connection from=":juncMain_10" to="edgeN_I" fromLane="1" toLane="3" dir="s" state="M"/>
    <connection from=":juncMain_10" to="edgeN_I" fromLane="2" toLane="4" dir="s" state="M"/>
    <connection from=":juncMain_13" to="edgeS_I" fromLane="0" toLane="1" via=":juncMain_21_0" dir="r" state="m"/>
    <connection from=":juncMain_21" to="edgeS_I" fromLane="0" toLane="1" dir="r" state="M"/>
    <connection from=":juncMain_14" to="edgeE_I" fromLane="0" toLane="1" dir="s" state="M"/>
    <connection from=":juncMain_14" to="edgeE_I" fromLane="1" toLane="2" dir="s" state="M"/>
    <connection from=":juncMain_14" to="edgeE_I" fromLane="2" toLane="3" dir="s" state="M"/>
    <connection from=":juncMain_14" to="edgeE_I" fromLane="3" toLane="4" dir="s" state="M"/>
    <connection from=":juncN_0" to="edgeN_O" fromLane="0" toLane="4" dir="t" state="M"/>
    <connection from=":juncS_0" to="edgeS_O" fromLane="0" toLane="4" dir="t" state="M"/>
    <connection from=":juncW_0" to="edgeW_O" fromLane="0" toLane="4" dir="t" state="M"/>

    <connection from=":juncE_w0" to="edgeE_O" fromLane="0" toLane="0" dir="s" state="M"/>
    <connection from="edgeE_I" to=":juncE_w0" fromLane="0" toLane="0" dir="s" state="M"/>
    <connection from=":juncMain_c0" to=":juncMain_w0" fromLane="0" toLane="0" dir="s" state="M"/>
    <connection from=":juncMain_c1" to=":juncMain_w1" fromLane="0" toLane="0" dir="s" state="M"/>
    <connection from=":juncMain_c2" to=":juncMain_w2" fromLane="0" toLane="0" dir="s" state="M"/>
    <connection from=":juncMain_c3" to=":juncMain_w3" fromLane="0" toLane="0" dir="s" state="M"/>
    <connection from=":juncMain_w0" to=":juncMain_c3" fromLane="0" toLane="0" tl="juncMain" linkIndex="21" dir="s" state="M"/>
    <connection from=":juncMain_w0" to="edgeW_I" fromLane="0" toLane="0" dir="s" state="M"/>
    <connection from="edgeN_O" to=":juncMain_w0" fromLane="0" toLane="0" dir="s" state="M"/>
    <connection from=":juncMain_w1" to=":juncMain_c0" fromLane="0" toLane="0" tl="juncMain" linkIndex="18" dir="s" state="M"/>
    <connection from=":juncMain_w1" to="edgeN_I" fromLane="0" toLane="0" dir="s" state="M"/>
    <connection from="edgeE_O" to=":juncMain_w1" fromLane="0" toLane="0" dir="s" state="M"/>
    <connection from=":juncMain_w2" to=":juncMain_c1" fromLane="0" toLane="0" tl="juncMain" linkIndex="19" dir="s" state="M"/>
    <connection from=":juncMain_w2" to="edgeE_I" fromLane="0" toLane="0" dir="s" state="M"/>
    <connection from="edgeS_O" to=":juncMain_w2" fromLane="0" toLane="0" dir="s" state="M"/>
    <connection from=":juncMain_w3" to=":juncMain_c2" fromLane="0" toLane="0" tl="juncMain" linkIndex="20" dir="s" state="M"/>
    <connection from=":juncMain_w3" to="edgeS_I" fromLane="0" toLane="0" dir="s" state="M"/>
    <connection from="edgeW_O" to=":juncMain_w3" fromLane="0" toLane="0" dir="s" state="M"/>
    <connection from=":juncN_w0" to="edgeN_O" fromLane="0" toLane="0" dir="s" state="M"/>
    <connection from="edgeN_I" to=":juncN_w0" fromLane="0" toLane="0" dir="s" state="M"/>
    <connection from=":juncS_w0" to="edgeS_O" fromLane="0" toLane="0" dir="s" state="M"/>
    <connection from="edgeS_I" to=":juncS_w0" fromLane="0" toLane="0" dir="s" state="M"/>
    <connection from=":juncW_w0" to="edgeW_O" fromLane="0" toLane="0" dir="s" state="M"/>
    <connection from="edgeW_I" to=":juncW_w0" fromLane="0" toLane="0" dir="s" state="M"/>
</net>
