<additional>
   <tlLogic id="juncMain" type="static" programID="1" offset="0">
       <phase duration="29.674374" state="GgGgGggrrrrrrrrGgGgGggrrrrrrrrrGrG"/>
       <phase duration="4.721894" state="yyyyyyyrrrrrrrryyyyyyyrrrrrrrrrGrG"/>
       <phase duration="9.180710" state="rrrrrrrrrrrrrrrrrrrrrrrrrrrrrrrGrG"/>
       <phase duration="37.676878" state="rrrrrrrGGggGGGGrrrrrrrGGggGGGGGrGr"/>
       <phase duration="4.043765" state="rrrrrrryyyyyyyyrrrrrrryyyyyyyyGrGr"/>
       <phase duration="5.795759" state="rrrrrrrrrrrrrrrrrrrrrrrrrrrrrrGrGr"/>
   </tlLogic>
</additional>
