<?xml version="1.0" encoding="UTF-8"?>

<!-- generated on 2021-10-26 00:34:45 by Eclipse SUMO netconvert Version 1.10.0
<configuration xmlns:xsi="http://www.w3.org/2001/XMLSchema-instance" xsi:noNamespaceSchemaLocation="http://sumo.dlr.de/xsd/netconvertConfiguration.xsd">

    <input>
        <node-files value="data/cross.nod.xml"/>
        <edge-files value="data/cross.edg.xml"/>
        <connection-files value="data/cross.con.xml"/>
    </input>

    <output>
        <output-file value="data/cross.net.xml"/>
    </output>

    <junctions>
        <no-turnarounds.except-turnlane value="true"/>
    </junctions>

    <report>
        <aggregate-warnings value="5"/>
    </report>

</configuration>
-->

<net version="1.9" junctionCornerDetail="5" limitTurnSpeed="5.50" xmlns:xsi="http://www.w3.org/2001/XMLSchema-instance" xsi:noNamespaceSchemaLocation="http://sumo.dlr.de/xsd/net_file.xsd">

    <location netOffset="300.00,500.00" convBoundary="0.00,0.00,800.00,1300.00" origBoundary="-300.00,-500.00,500.00,800.00" projParameter="!"/>

    <edge id=":juncE_0" function="internal">
        <lane id=":juncE_0_0" index="0" disallow="pedestrian" speed="3.65" length="4.67" shape="800.00,498.40 801.20,499.20 801.60,500.00 801.20,500.80 800.00,501.60"/>
    </edge>
    <edge id=":juncE_w0" function="walkingarea">
        <lane id=":juncE_w0_0" index="0" allow="pedestrian" speed="1.00" length="28.80" width="3.20" shape="800.00,512.80 800.00,516.00 800.00,484.00 800.00,487.20"/>
    </edge>
    <edge id=":juncMain_0" function="internal">
        <lane id=":juncMain_0_0" index="0" disallow="pedestrian" speed="16.10" length="35.00" shape="288.80,517.50 288.80,482.50"/>
        <lane id=":juncMain_0_1" index="1" disallow="pedestrian" speed="16.10" length="35.00" shape="292.00,517.50 292.00,482.50"/>
        <lane id=":juncMain_0_2" index="2" disallow="pedestrian" speed="16.10" length="35.00" shape="295.20,517.50 295.20,482.50"/>
    </edge>
    <edge id=":juncMain_3" function="internal">
        <lane id=":juncMain_3_0" index="0" disallow="pedestrian" speed="12.03" length="17.66" shape="298.40,517.50 299.59,507.74 303.17,500.78"/>
        <lane id=":juncMain_3_1" index="1" disallow="pedestrian" speed="11.57" length="15.40" shape="298.40,517.50 299.59,509.14 303.17,503.17"/>
    </edge>
    <edge id=":juncMain_5" function="internal">
        <lane id=":juncMain_5_0" index="0" disallow="pedestrian" speed="3.65" length="2.34" shape="298.40,517.50 299.20,516.30 300.00,515.90"/>
    </edge>
    <edge id=":juncMain_34" function="internal">
        <lane id=":juncMain_34_0" index="0" disallow="pedestrian" speed="12.03" length="15.76" shape="303.17,500.78 309.14,496.59 317.50,495.20"/>
    </edge>
    <edge id=":juncMain_35" function="internal">
        <lane id=":juncMain_35_0" index="0" disallow="pedestrian" speed="11.57" length="15.40" shape="303.17,503.17 309.14,499.59 317.50,498.40"/>
    </edge>
    <edge id=":juncMain_36" function="internal">
        <lane id=":juncMain_36_0" index="0" disallow="pedestrian" speed="3.65" length="2.34" shape="300.00,515.90 300.80,516.30 301.60,517.50"/>
    </edge>
    <edge id=":juncMain_6" function="internal">
        <lane id=":juncMain_6_0" index="0" disallow="pedestrian" speed="6.86" length="5.34" shape="317.50,511.20 314.74,511.59 312.77,512.77 312.64,513.00"/>
        <lane id=":juncMain_6_1" index="1" disallow="pedestrian" speed="7.64" length="7.67" shape="317.50,511.20 313.34,511.59 310.38,512.77 310.17,513.00"/>
    </edge>
    <edge id=":juncMain_8" function="internal">
        <lane id=":juncMain_8_0" index="0" disallow="pedestrian" speed="19.31" length="35.00" shape="317.50,511.20 282.50,511.20"/>
    </edge>
    <edge id=":juncMain_9" function="internal">
        <lane id=":juncMain_9_0" index="0" disallow="pedestrian" speed="7.64" length="4.32" shape="317.50,508.00 314.74,508.59 313.63,509.60"/>
        <lane id=":juncMain_9_1" index="1" disallow="pedestrian" speed="8.29" length="6.15" shape="317.50,508.00 313.34,508.59 311.67,509.60"/>
    </edge>
    <edge id=":juncMain_11" function="internal">
        <lane id=":juncMain_11_0" index="0" disallow="pedestrian" speed="19.31" length="35.00" shape="317.50,508.00 282.50,508.00"/>
    </edge>
    <edge id=":juncMain_12" function="internal">
        <lane id=":juncMain_12_0" index="0" disallow="pedestrian" speed="12.50" length="21.44" shape="317.50,508.00 309.14,506.41 303.17,501.62 301.01,496.80"/>
    </edge>
    <edge id=":juncMain_13" function="internal">
        <lane id=":juncMain_13_0" index="0" disallow="pedestrian" speed="19.31" length="35.00" shape="317.50,504.80 282.50,504.80"/>
    </edge>
    <edge id=":juncMain_14" function="internal">
        <lane id=":juncMain_14_0" index="0" disallow="pedestrian" speed="12.03" length="18.49" shape="317.50,504.80 309.14,503.41 303.17,499.23 301.93,496.80"/>
        <lane id=":juncMain_14_1" index="1" disallow="pedestrian" speed="11.57" length="15.40" shape="317.50,501.60 309.14,500.41 303.17,496.83"/>
    </edge>
    <edge id=":juncMain_16" function="internal">
        <lane id=":juncMain_16_0" index="0" disallow="pedestrian" speed="3.65" length="2.34" shape="317.50,501.60 316.30,500.80 315.90,500.00"/>
    </edge>
    <edge id=":juncMain_37" function="internal">
        <lane id=":juncMain_37_0" index="0" disallow="pedestrian" speed="6.86" length="4.82" shape="312.64,513.00 311.59,514.74 311.20,517.50"/>
    </edge>
    <edge id=":juncMain_38" function="internal">
        <lane id=":juncMain_38_0" index="0" disallow="pedestrian" speed="7.64" length="5.17" shape="310.17,513.00 308.59,514.74 308.00,517.50"/>
    </edge>
    <edge id=":juncMain_39" function="internal">
        <lane id=":juncMain_39_0" index="0" disallow="pedestrian" speed="7.64" length="8.53" shape="313.63,509.60 312.77,510.38 311.59,513.34 311.20,517.50"/>
    </edge>
    <edge id=":juncMain_40" function="internal">
        <lane id=":juncMain_40_0" index="0" disallow="pedestrian" speed="8.29" length="9.17" shape="311.67,509.60 310.38,510.38 308.59,513.34 308.00,517.50"/>
    </edge>
    <edge id=":juncMain_41" function="internal">
        <lane id=":juncMain_41_0" index="0" disallow="pedestrian" speed="12.50" length="14.67" shape="301.01,496.80 299.59,493.66 298.40,482.50"/>
    </edge>
    <edge id=":juncMain_42" function="internal">
        <lane id=":juncMain_42_0" index="0" disallow="pedestrian" speed="12.03" length="14.94" shape="301.93,496.80 299.59,492.26 298.40,482.50"/>
    </edge>
    <edge id=":juncMain_43" function="internal">
        <lane id=":juncMain_43_0" index="0" disallow="pedestrian" speed="11.57" length="15.40" shape="303.17,496.83 299.59,490.86 298.40,482.50"/>
    </edge>
    <edge id=":juncMain_44" function="internal">
        <lane id=":juncMain_44_0" index="0" disallow="pedestrian" speed="3.65" length="2.34" shape="315.90,500.00 316.30,499.20 317.50,498.40"/>
    </edge>
    <edge id=":juncMain_17" function="internal">
        <lane id=":juncMain_17_0" index="0" disallow="pedestrian" speed="16.10" length="35.00" shape="311.20,482.50 311.20,517.50"/>
        <lane id=":juncMain_17_1" index="1" disallow="pedestrian" speed="16.10" length="35.00" shape="308.00,482.50 308.00,517.50"/>
        <lane id=":juncMain_17_2" index="2" disallow="pedestrian" speed="16.10" length="35.00" shape="304.80,482.50 304.80,517.50"/>
    </edge>
    <edge id=":juncMain_20" function="internal">
        <lane id=":juncMain_20_0" index="0" disallow="pedestrian" speed="12.03" length="17.66" shape="301.60,482.50 300.41,492.26 296.83,499.22"/>
        <lane id=":juncMain_20_1" index="1" disallow="pedestrian" speed="11.57" length="15.40" shape="301.60,482.50 300.41,490.86 296.83,496.83"/>
    </edge>
    <edge id=":juncMain_22" function="internal">
        <lane id=":juncMain_22_0" index="0" disallow="pedestrian" speed="3.65" length="2.34" shape="301.60,482.50 300.80,483.70 300.00,484.10"/>
    </edge>
    <edge id=":juncMain_45" function="internal">
        <lane id=":juncMain_45_0" index="0" disallow="pedestrian" speed="12.03" length="15.76" shape="296.83,499.22 290.86,503.41 282.50,504.80"/>
    </edge>
    <edge id=":juncMain_46" function="internal">
        <lane id=":juncMain_46_0" index="0" disallow="pedestrian" speed="11.57" length="15.40" shape="296.83,496.83 290.86,500.41 282.50,501.60"/>
    </edge>
    <edge id=":juncMain_47" function="internal">
        <lane id=":juncMain_47_0" index="0" disallow="pedestrian" speed="3.65" length="2.34" shape="300.00,484.10 299.20,483.70 298.40,482.50"/>
    </edge>
    <edge id=":juncMain_23" function="internal">
        <lane id=":juncMain_23_0" index="0" disallow="pedestrian" speed="6.86" length="5.34" shape="282.50,488.80 285.26,488.41 287.23,487.23 287.36,487.00"/>
        <lane id=":juncMain_23_1" index="1" disallow="pedestrian" speed="7.64" length="7.67" shape="282.50,488.80 286.66,488.41 289.62,487.23 289.83,487.00"/>
    </edge>
    <edge id=":juncMain_25" function="internal">
        <lane id=":juncMain_25_0" index="0" disallow="pedestrian" speed="19.31" length="35.00" shape="282.50,488.80 317.50,488.80"/>
    </edge>
    <edge id=":juncMain_26" function="internal">
        <lane id=":juncMain_26_0" index="0" disallow="pedestrian" speed="7.64" length="4.32" shape="282.50,492.00 285.26,491.41 286.37,490.40"/>
        <lane id=":juncMain_26_1" index="1" disallow="pedestrian" speed="8.29" length="6.15" shape="282.50,492.00 286.66,491.41 288.33,490.40"/>
    </edge>
    <edge id=":juncMain_28" function="internal">
        <lane id=":juncMain_28_0" index="0" disallow="pedestrian" speed="19.31" length="35.00" shape="282.50,492.00 317.50,492.00"/>
    </edge>
    <edge id=":juncMain_29" function="internal">
        <lane id=":juncMain_29_0" index="0" disallow="pedestrian" speed="12.50" length="21.44" shape="282.50,492.00 290.86,493.59 296.83,498.38 298.99,503.20"/>
    </edge>
    <edge id=":juncMain_30" function="internal">
        <lane id=":juncMain_30_0" index="0" disallow="pedestrian" speed="19.31" length="35.00" shape="282.50,495.20 317.50,495.20"/>
    </edge>
    <edge id=":juncMain_31" function="internal">
        <lane id=":juncMain_31_0" index="0" disallow="pedestrian" speed="12.03" length="18.49" shape="282.50,495.20 290.86,496.59 296.83,500.77 298.07,503.20"/>
        <lane id=":juncMain_31_1" index="1" disallow="pedestrian" speed="11.57" length="15.40" shape="282.50,498.40 290.86,499.59 296.83,503.17"/>
    </edge>
    <edge id=":juncMain_33" function="internal">
        <lane id=":juncMain_33_0" index="0" disallow="pedestrian" speed="3.65" length="2.34" shape="282.50,498.40 283.70,499.20 284.10,500.00"/>
    </edge>
    <edge id=":juncMain_48" function="internal">
        <lane id=":juncMain_48_0" index="0" disallow="pedestrian" speed="6.86" length="4.82" shape="287.36,487.00 288.41,485.26 288.80,482.50"/>
    </edge>
    <edge id=":juncMain_49" function="internal">
        <lane id=":juncMain_49_0" index="0" disallow="pedestrian" speed="7.64" length="5.17" shape="289.83,487.00 291.41,485.26 292.00,482.50"/>
    </edge>
    <edge id=":juncMain_50" function="internal">
        <lane id=":juncMain_50_0" index="0" disallow="pedestrian" speed="7.64" length="8.53" shape="286.37,490.40 287.23,489.62 288.41,486.66 288.80,482.50"/>
    </edge>
    <edge id=":juncMain_51" function="internal">
        <lane id=":juncMain_51_0" index="0" disallow="pedestrian" speed="8.29" length="9.17" shape="288.33,490.40 289.62,489.62 291.41,486.66 292.00,482.50"/>
    </edge>
    <edge id=":juncMain_52" function="internal">
        <lane id=":juncMain_52_0" index="0" disallow="pedestrian" speed="12.50" length="14.67" shape="298.99,503.20 300.41,506.34 301.60,517.50"/>
    </edge>
    <edge id=":juncMain_53" function="internal">
        <lane id=":juncMain_53_0" index="0" disallow="pedestrian" speed="12.03" length="14.94" shape="298.07,503.20 300.41,507.74 301.60,517.50"/>
    </edge>
    <edge id=":juncMain_54" function="internal">
        <lane id=":juncMain_54_0" index="0" disallow="pedestrian" speed="11.57" length="15.40" shape="296.83,503.17 300.41,509.14 301.60,517.50"/>
    </edge>
    <edge id=":juncMain_55" function="internal">
        <lane id=":juncMain_55_0" index="0" disallow="pedestrian" speed="3.65" length="2.34" shape="284.10,500.00 283.70,500.80 282.50,501.60"/>
    </edge>
    <edge id=":juncMain_c0" function="crossing" crossingEdges="edgeN_I edgeN_O">
        <lane id=":juncMain_c0_0" index="0" allow="pedestrian" speed="1.00" length="25.60" width="4.50" shape="312.80,515.25 287.20,515.25"/>
    </edge>
    <edge id=":juncMain_c1" function="crossing" crossingEdges="edgeE_I edgeE_O">
        <lane id=":juncMain_c1_0" index="0" allow="pedestrian" speed="1.00" length="25.60" width="4.50" shape="315.25,487.20 315.25,512.80"/>
    </edge>
    <edge id=":juncMain_c2" function="crossing" crossingEdges="edgeS_I edgeS_O">
        <lane id=":juncMain_c2_0" index="0" allow="pedestrian" speed="1.00" length="25.60" width="4.50" shape="287.20,484.75 312.80,484.75"/>
    </edge>
    <edge id=":juncMain_c3" function="crossing" crossingEdges="edgeW_I edgeW_O">
        <lane id=":juncMain_c3_0" index="0" allow="pedestrian" speed="1.00" length="25.60" width="4.50" shape="284.75,512.80 284.75,487.20"/>
    </edge>
    <edge id=":juncMain_w0" function="walkingarea">
        <lane id=":juncMain_w0_0" index="0" allow="pedestrian" speed="1.00" length="3.82" width="4.50" shape="282.50,512.80 282.50,516.00 284.00,517.50 287.20,517.50 287.07,516.06 286.68,514.89 286.02,513.97 285.11,513.32 283.94,512.93"/>
    </edge>
    <edge id=":juncMain_w1" function="walkingarea">
        <lane id=":juncMain_w1_0" index="0" allow="pedestrian" speed="1.00" length="3.82" width="4.50" shape="312.80,517.50 316.00,517.50 317.50,516.00 317.50,512.80 316.06,512.93 314.89,513.32 313.98,513.97 313.32,514.89 312.93,516.06"/>
    </edge>
    <edge id=":juncMain_w2" function="walkingarea">
        <lane id=":juncMain_w2_0" index="0" allow="pedestrian" speed="1.00" length="3.82" width="4.50" shape="317.50,487.20 317.50,484.00 316.00,482.50 312.80,482.50 312.93,483.94 313.32,485.11 313.98,486.03 314.89,486.68 316.06,487.07"/>
    </edge>
    <edge id=":juncMain_w3" function="walkingarea">
        <lane id=":juncMain_w3_0" index="0" allow="pedestrian" speed="1.00" length="3.82" width="4.50" shape="287.20,482.50 284.00,482.50 282.50,484.00 282.50,487.20 283.94,487.07 285.11,486.68 286.02,486.02 286.68,485.11 287.07,483.94"/>
    </edge>
    <edge id=":juncN_0" function="internal">
        <lane id=":juncN_0_0" index="0" disallow="pedestrian" speed="3.65" length="4.67" shape="301.60,1300.00 300.80,1301.20 300.00,1301.60 299.20,1301.20 298.40,1300.00"/>
    </edge>
    <edge id=":juncN_w0" function="walkingarea">
        <lane id=":juncN_w0_0" index="0" allow="pedestrian" speed="1.00" length="28.80" width="3.20" shape="287.20,1300.00 284.00,1300.00 316.00,1300.00 312.80,1300.00"/>
    </edge>
    <edge id=":juncS_0" function="internal">
        <lane id=":juncS_0_0" index="0" disallow="pedestrian" speed="3.65" length="4.67" shape="298.40,0.00 299.20,-1.20 300.00,-1.60 300.80,-1.20 301.60,0.00"/>
    </edge>
    <edge id=":juncS_w0" function="walkingarea">
        <lane id=":juncS_w0_0" index="0" allow="pedestrian" speed="1.00" length="28.80" width="3.20" shape="312.80,0.00 316.00,0.00 284.00,0.00 287.20,0.00"/>
    </edge>
    <edge id=":juncW_0" function="internal">
        <lane id=":juncW_0_0" index="0" disallow="pedestrian" speed="3.65" length="4.67" shape="0.00,501.60 -1.20,500.80 -1.60,500.00 -1.20,499.20 0.00,498.40"/>
    </edge>
    <edge id=":juncW_w0" function="walkingarea">
        <lane id=":juncW_w0_0" index="0" allow="pedestrian" speed="1.00" length="28.80" width="3.20" shape="0.00,487.20 0.00,484.00 0.00,516.00 0.00,512.80"/>
    </edge>

    <edge id="edgeE_I" from="juncMain" to="juncE" priority="46">
        <lane id="edgeE_I_0" index="0" allow="pedestrian" speed="15.87" length="482.50" shape="317.50,485.60 800.00,485.60"/>
        <lane id="edgeE_I_1" index="1" disallow="pedestrian" speed="15.87" length="482.50" shape="317.50,488.80 800.00,488.80"/>
        <lane id="edgeE_I_2" index="2" disallow="pedestrian" speed="15.87" length="482.50" shape="317.50,492.00 800.00,492.00"/>
        <lane id="edgeE_I_3" index="3" disallow="pedestrian" speed="15.87" length="482.50" shape="317.50,495.20 800.00,495.20"/>
        <lane id="edgeE_I_4" index="4" disallow="pedestrian" speed="15.87" length="482.50" shape="317.50,498.40 800.00,498.40"/>
    </edge>
    <edge id="edgeE_O" from="juncE" to="juncMain" priority="78">
        <lane id="edgeE_O_0" index="0" allow="pedestrian" speed="22.76" length="482.50" shape="800.00,514.40 317.50,514.40"/>
        <lane id="edgeE_O_1" index="1" disallow="pedestrian" speed="22.76" length="482.50" shape="800.00,511.20 317.50,511.20"/>
        <lane id="edgeE_O_2" index="2" disallow="pedestrian" speed="22.76" length="482.50" shape="800.00,508.00 317.50,508.00"/>
        <lane id="edgeE_O_3" index="3" disallow="pedestrian" speed="22.76" length="482.50" shape="800.00,504.80 317.50,504.80"/>
        <lane id="edgeE_O_4" index="4" disallow="pedestrian" speed="22.76" length="482.50" shape="800.00,501.60 317.50,501.60"/>
    </edge>
    <edge id="edgeN_I" from="juncMain" to="juncN" priority="46">
        <lane id="edgeN_I_0" index="0" allow="pedestrian" speed="20.31" length="782.50" shape="314.40,517.50 314.40,1300.00"/>
        <lane id="edgeN_I_1" index="1" disallow="pedestrian" speed="20.31" length="782.50" shape="311.20,517.50 311.20,1300.00"/>
        <lane id="edgeN_I_2" index="2" disallow="pedestrian" speed="20.31" length="782.50" shape="308.00,517.50 308.00,1300.00"/>
        <lane id="edgeN_I_3" index="3" disallow="pedestrian" speed="20.31" length="782.50" shape="304.80,517.50 304.80,1300.00"/>
        <lane id="edgeN_I_4" index="4" disallow="pedestrian" speed="20.31" length="782.50" shape="301.60,517.50 301.60,1300.00"/>
    </edge>
    <edge id="edgeN_O" from="juncN" to="juncMain" priority="78">
        <lane id="edgeN_O_0" index="0" allow="pedestrian" speed="11.89" length="782.50" shape="285.60,1300.00 285.60,517.50"/>
        <lane id="edgeN_O_1" index="1" disallow="pedestrian" speed="11.89" length="782.50" shape="288.80,1300.00 288.80,517.50"/>
        <lane id="edgeN_O_2" index="2" disallow="pedestrian" speed="11.89" length="782.50" shape="292.00,1300.00 292.00,517.50"/>
        <lane id="edgeN_O_3" index="3" disallow="pedestrian" speed="11.89" length="782.50" shape="295.20,1300.00 295.20,517.50"/>
        <lane id="edgeN_O_4" index="4" disallow="pedestrian" speed="11.89" length="782.50" shape="298.40,1300.00 298.40,517.50"/>
    </edge>
    <edge id="edgeS_I" from="juncMain" to="juncS" priority="46">
        <lane id="edgeS_I_0" index="0" allow="pedestrian" speed="20.31" length="482.50" shape="285.60,482.50 285.60,0.00"/>
        <lane id="edgeS_I_1" index="1" disallow="pedestrian" speed="20.31" length="482.50" shape="288.80,482.50 288.80,0.00"/>
        <lane id="edgeS_I_2" index="2" disallow="pedestrian" speed="20.31" length="482.50" shape="292.00,482.50 292.00,0.00"/>
        <lane id="edgeS_I_3" index="3" disallow="pedestrian" speed="20.31" length="482.50" shape="295.20,482.50 295.20,0.00"/>
        <lane id="edgeS_I_4" index="4" disallow="pedestrian" speed="20.31" length="482.50" shape="298.40,482.50 298.40,0.00"/>
    </edge>
    <edge id="edgeS_O" from="juncS" to="juncMain" priority="78">
        <lane id="edgeS_O_0" index="0" allow="pedestrian" speed="11.89" length="482.50" shape="314.40,0.00 314.40,482.50"/>
        <lane id="edgeS_O_1" index="1" disallow="pedestrian" speed="11.89" length="482.50" shape="311.20,0.00 311.20,482.50"/>
        <lane id="edgeS_O_2" index="2" disallow="pedestrian" speed="11.89" length="482.50" shape="308.00,0.00 308.00,482.50"/>
        <lane id="edgeS_O_3" index="3" disallow="pedestrian" speed="11.89" length="482.50" shape="304.80,0.00 304.80,482.50"/>
        <lane id="edgeS_O_4" index="4" disallow="pedestrian" speed="11.89" length="482.50" shape="301.60,0.00 301.60,482.50"/>
    </edge>
    <edge id="edgeW_I" from="juncMain" to="juncW" priority="46">
        <lane id="edgeW_I_0" index="0" allow="pedestrian" speed="15.87" length="282.50" shape="282.50,514.40 0.00,514.40"/>
        <lane id="edgeW_I_1" index="1" disallow="pedestrian" speed="15.87" length="282.50" shape="282.50,511.20 0.00,511.20"/>
        <lane id="edgeW_I_2" index="2" disallow="pedestrian" speed="15.87" length="282.50" shape="282.50,508.00 0.00,508.00"/>
        <lane id="edgeW_I_3" index="3" disallow="pedestrian" speed="15.87" length="282.50" shape="282.50,504.80 0.00,504.80"/>
        <lane id="edgeW_I_4" index="4" disallow="pedestrian" speed="15.87" length="282.50" shape="282.50,501.60 0.00,501.60"/>
    </edge>
    <edge id="edgeW_O" from="juncW" to="juncMain" priority="78">
        <lane id="edgeW_O_0" index="0" allow="pedestrian" speed="22.76" length="282.50" shape="0.00,485.60 282.50,485.60"/>
        <lane id="edgeW_O_1" index="1" disallow="pedestrian" speed="22.76" length="282.50" shape="0.00,488.80 282.50,488.80"/>
        <lane id="edgeW_O_2" index="2" disallow="pedestrian" speed="22.76" length="282.50" shape="0.00,492.00 282.50,492.00"/>
        <lane id="edgeW_O_3" index="3" disallow="pedestrian" speed="22.76" length="282.50" shape="0.00,495.20 282.50,495.20"/>
        <lane id="edgeW_O_4" index="4" disallow="pedestrian" speed="22.76" length="282.50" shape="0.00,498.40 282.50,498.40"/>
    </edge>

    <tlLogic id="juncMain" type="static" programID="0" offset="0">
        <phase duration="24" state="rrrrrrggGggGgGgrrrrrrrrggGggGgGgrrGrGr"/>
        <phase duration="5"  state="rrrrrrggGggGgGgrrrrrrrrggGggGgGgrrrrrr"/>
        <phase duration="5"  state="rrrrrryyyyyyyyyrrrrrrrryyyyyyyyyrrrrrr"/>
        <phase duration="6"  state="rrrrrrrrrrrrrrrGGrrrrrrrrrrrrrrrGGrrrr"/>
        <phase duration="5"  state="rrrrrrrrrrrrrrryyrrrrrrrrrrrrrrryyrrrr"/>
        <phase duration="24" state="GGGgggrrrrrrrrrrrGGGgggrrrrrrrrrrrrGrG"/>
        <phase duration="5"  state="GGGgggrrrrrrrrrrrGGGgggrrrrrrrrrrrrrrr"/>
        <phase duration="5"  state="yyygggrrrrrrrrrrryyygggrrrrrrrrrrrrrrr"/>
        <phase duration="6"  state="rrrGGGrrrrrrrrrrrrrrGGGrrrrrrrrrrrrrrr"/>
        <phase duration="5"  state="rrryyyrrrrrrrrrrrrrryyyrrrrrrrrrrrrrrr"/>
    </tlLogic>

    <junction id="juncE" type="priority" x="800.00" y="500.00" incLanes="edgeE_I_0 edgeE_I_1 edgeE_I_2 edgeE_I_3 edgeE_I_4" intLanes=":juncE_0_0" shape="800.00,500.00 800.00,484.00 800.00,500.00">
        <request index="0" response="0" foes="0" cont="0"/>
    </junction>
    <junction id="juncMain" type="traffic_light" x="300.00" y="500.00" incLanes="edgeN_O_0 edgeN_O_1 edgeN_O_2 edgeN_O_3 edgeN_O_4 edgeE_O_0 edgeE_O_1 edgeE_O_2 edgeE_O_3 edgeE_O_4 edgeS_O_0 edgeS_O_1 edgeS_O_2 edgeS_O_3 edgeS_O_4 edgeW_O_0 edgeW_O_1 edgeW_O_2 edgeW_O_3 edgeW_O_4 :juncMain_w1_0 :juncMain_w2_0 :juncMain_w3_0 :juncMain_w0_0" intLanes=":juncMain_0_0 :juncMain_0_1 :juncMain_0_2 :juncMain_34_0 :juncMain_35_0 :juncMain_36_0 :juncMain_37_0 :juncMain_38_0 :juncMain_8_0 :juncMain_39_0 :juncMain_40_0 :juncMain_11_0 :juncMain_41_0 :juncMain_13_0 :juncMain_42_0 :juncMain_43_0 :juncMain_44_0 :juncMain_17_0 :juncMain_17_1 :juncMain_17_2 :juncMain_45_0 :juncMain_46_0 :juncMain_47_0 :juncMain_48_0 :juncMain_49_0 :juncMain_25_0 :juncMain_50_0 :juncMain_51_0 :juncMain_28_0 :juncMain_52_0 :juncMain_30_0 :juncMain_53_0 :juncMain_54_0 :juncMain_55_0 :juncMain_c0_0 :juncMain_c1_0 :juncMain_c2_0 :juncMain_c3_0" shape="284.00,517.50 316.00,517.50 316.17,516.67 316.38,516.38 316.67,516.17 317.04,516.04 317.50,516.00 317.50,484.00 316.67,483.83 316.38,483.62 316.17,483.33 316.04,482.96 316.00,482.50 284.00,482.50 283.83,483.33 283.62,483.62 283.33,483.83 282.96,483.96 282.50,484.00 282.50,516.00 283.33,516.17 283.62,516.38 283.83,516.67 283.96,517.04">
        <request index="0"  response="01010111111111100000000010100100000000" foes="01010111111111101100000010100100000000" cont="0"/>
        <request index="1"  response="01010111111111100000000010100100000000" foes="01010111111111101100000010100100000000" cont="0"/>
        <request index="2"  response="01010111111111100000000010100100000000" foes="01010111111111101100000010100100000000" cont="0"/>
        <request index="3"  response="00110111110010000011101111100100000000" foes="00110111110010000011111111100100000000" cont="1"/>
        <request index="4"  response="00110111110010000011101111100100000000" foes="00110111110010000011111111100100000000" cont="1"/>
        <request index="5"  response="00010110100000000000000000000000000000" foes="00010110100000000000000000000000000000" cont="1"/>
        <request index="6"  response="00110000000000000000000000000000000000" foes="00110000000000000011100000001000000000" cont="1"/>
        <request index="7"  response="00110000000000000000000000000000000000" foes="00110000000000000011100000010000000000" cont="1"/>
        <request index="8"  response="10100000000000001100000000000000011000" foes="10100110100000001111100000011000011111" cont="0"/>
        <request index="9"  response="00110000000000000000000000000101000000" foes="00110000000000000011100000000101000000" cont="1"/>
        <request index="10" response="00110000000000000000000000000110000000" foes="00110000000000000011100000000110000000" cont="1"/>
        <request index="11" response="10100000000000001100000000000000011000" foes="10100110100000001111100000000000011111" cont="0"/>
        <request index="12" response="01100001010010001100001110000000011000" foes="01100001010010011111101110000000011000" cont="1"/>
        <request index="13" response="10100000000000001100000000000000011000" foes="10100110100000001111100001000000011111" cont="0"/>
        <request index="14" response="01100001010010001100001000000000011000" foes="01100001010010011111101001000000011000" cont="1"/>
        <request index="15" response="01100001010010001100000000000000011000" foes="01100001010010011111100101000000011000" cont="1"/>
        <request index="16" response="00100000000000000000000000000000011000" foes="00100000000000000000000000000000011000" cont="1"/>
        <request index="17" response="01010001010010000000001111111111000000" foes="01010001010010000000001111111111011000" cont="0"/>
        <request index="18" response="01010001010010000000001111111111000000" foes="01010001010010000000001111111111011000" cont="0"/>
        <request index="19" response="01010001010010000000001111111111000000" foes="01010001010010000000001111111111011000" cont="0"/>
        <request index="20" response="11000111110010000000001111100100000111" foes="11001111110010000000001111100100000111" cont="1"/>
        <request index="21" response="11000111110010000000001111100100000111" foes="11001111110010000000001111100100000111" cont="1"/>
        <request index="22" response="01000000000000000000001101000000000000" foes="01000000000000000000001101000000000000" cont="1"/>
        <request index="23" response="11000000000000000000000000000000000000" foes="11000000000100000000000000000000000111" cont="1"/>
        <request index="24" response="11000000000000000000000000000000000000" foes="11000000001000000000000000000000000111" cont="1"/>
        <request index="25" response="10100000000000001100000000000000011000" foes="10100000001100001111101101000000011111" cont="0"/>
        <request index="26" response="11000000000010100000000000000000000000" foes="11000000000010100000000000000000000111" cont="1"/>
        <request index="27" response="11000000000011000000000000000000000000" foes="11000000000011000000000000000000000111" cont="1"/>
        <request index="28" response="10100000000000001100000000000000011000" foes="10100000000000001111101101000000011111" cont="0"/>
        <request index="29" response="10010111000000001100000010100100011000" foes="10010111000000001100000010100100111111" cont="1"/>
        <request index="30" response="10100000000000001100000000000000011000" foes="10100000100000001111101101000000011111" cont="0"/>
        <request index="31" response="10010100000000001100000010100100011000" foes="10010100100000001100000010100100111111" cont="1"/>
        <request index="32" response="10010000000000001100000010100100011000" foes="10010010100000001100000010100100111111" cont="1"/>
        <request index="33" response="10000000000000001100000000000000000000" foes="10000000000000001100000000000000000000" cont="1"/>
        <request index="34" response="00000000000000000000000000000000000000" foes="00000110100000000011100000011011111111" cont="0"/>
        <request index="35" response="00000000000000000000000000000000000000" foes="00000001010010000000011111111111011000" cont="0"/>
        <request index="36" response="00000000000000000000000000000000000000" foes="00000000001101111111101101000000000111" cont="0"/>
        <request index="37" response="00000000000000000000000000000000000000" foes="00001111111111101100000010100100000000" cont="0"/>
    </junction>
    <junction id="juncN" type="priority" x="300.00" y="1300.00" incLanes="edgeN_I_0 edgeN_I_1 edgeN_I_2 edgeN_I_3 edgeN_I_4" intLanes=":juncN_0_0" shape="300.00,1300.00 316.00,1300.00 300.00,1300.00">
        <request index="0" response="0" foes="0" cont="0"/>
    </junction>
    <junction id="juncS" type="priority" x="300.00" y="0.00" incLanes="edgeS_I_0 edgeS_I_1 edgeS_I_2 edgeS_I_3 edgeS_I_4" intLanes=":juncS_0_0" shape="300.00,0.00 284.00,0.00 300.00,0.00">
        <request index="0" response="0" foes="0" cont="0"/>
    </junction>
    <junction id="juncW" type="priority" x="0.00" y="500.00" incLanes="edgeW_I_0 edgeW_I_1 edgeW_I_2 edgeW_I_3 edgeW_I_4" intLanes=":juncW_0_0" shape="0.00,500.00 0.00,516.00 0.00,500.00">
        <request index="0" response="0" foes="0" cont="0"/>
    </junction>
