<additional>
   <tlLogic id="juncMain" type="static" programID="1" offset="0">
       <phase duration="40.244744" state="GgGGgggrrrrrrrGgGGgggrrrrrrrrGrG"/>
       <phase duration="4.310492" state="yyyyyyyrrrrrrryyyyyyyrrrrrrrrGrG"/>
       <phase duration="13.058025" state="rrrrrrrrrrrrrrrrrrrrrrrrrrrrrGrG"/>
       <phase duration="96.889170" state="rrrrrrrgGGGGggrrrrrrrgGGGGggGrGr"/>
       <phase duration="3.461502" state="rrrrrrryyyyyyyrrrrrrryyyyyyyGrGr"/>
       <phase duration="14.203410" state="rrrrrrrrrrrrrrrrrrrrrrrrrrrrGrGr"/>
       <phase duration="31.252502" state="rrrrGGGrrrrrrrrrrrGGGrrrrrrrrrrr"/>
   </tlLogic>
</additional>
