<routes>
   <personFlow id="pRegN" begin="0" end="3000" personsPerHour="107.478830">
        <walk edges="edgeN_O edgeS_I" speed="1.045256"/>
    </personFlow>
   <personFlow id="pRegS" begin="0" end="3000" personsPerHour="679.796034">
        <walk edges="edgeS_O edgeN_I" speed="0.900226"/>
    </personFlow>
   <personFlow id="pRegW" begin="0" end="3000" personsPerHour="487.296578">
        <walk edges="edgeW_O edgeE_I" speed="1.275287"/>
    </personFlow>
   <personFlow id="pRegE" begin="0" end="3000" personsPerHour="135.135534">
        <walk edges="edgeE_O edgeW_I" speed="1.199413"/>
    </personFlow>
   <personFlow id="pOppN" begin="0" end="3000" personsPerHour="711.858695" departPos="800.000000">
        <walk edges="edgeN_I edgeS_O" speed="2.128663"/>
    </personFlow>
   <personFlow id="pOppS" begin="0" end="3000" personsPerHour="687.113144" departPos="400.000000">
        <walk edges="edgeS_I edgeN_O" speed="1.425561"/>
    </personFlow>
   <personFlow id="pOppW" begin="0" end="3000" personsPerHour="805.069423" departPos="900.000000">
        <walk edges="edgeW_I edgeE_O" speed="1.892968"/>
    </personFlow>
   <personFlow id="pOppE" begin="0" end="3000" personsPerHour="876.783382" departPos="400.000000">
        <walk edges="edgeE_I edgeW_O" speed="1.665625"/>
    </personFlow>

    <route id="edgeN_edgeN" edges="edgeN_O edgeN_I" />
    <route id="edgeN_edgeS" edges="edgeN_O edgeS_I" />
    <route id="edgeN_edgeW" edges="edgeN_O edgeW_I" />
    <route id="edgeN_edgeE" edges="edgeN_O edgeE_I" />
    <route id="edgeS_edgeN" edges="edgeS_O edgeN_I" />
    <route id="edgeS_edgeS" edges="edgeS_O edgeS_I" />
    <route id="edgeS_edgeW" edges="edgeS_O edgeW_I" />
    <route id="edgeS_edgeE" edges="edgeS_O edgeE_I" />
    <route id="edgeW_edgeN" edges="edgeW_O edgeN_I" />
    <route id="edgeW_edgeS" edges="edgeW_O edgeS_I" />
    <route id="edgeW_edgeW" edges="edgeW_O edgeW_I" />
    <route id="edgeW_edgeE" edges="edgeW_O edgeE_I" />
    <route id="edgeE_edgeN" edges="edgeE_O edgeN_I" />
    <route id="edgeE_edgeS" edges="edgeE_O edgeS_I" />
    <route id="edgeE_edgeW" edges="edgeE_O edgeW_I" />
    <route id="edgeE_edgeE" edges="edgeE_O edgeE_I" />
    
   <vType id="vehicleS_0" length="4.279000" accel="3.271000" decel="5.509000" sigma="0.5" minGap="2.314146" maxSpeed="146.544647" guiShape="passenger" />
   <vehicle id="straightS_0" type="vehicleS_0" route="edgeS_edgeN" depart="0" departLane="1" />

   <vType id="vehicleE_1" length="4.296000" accel="3.121000" decel="5.078000" sigma="0.5" minGap="2.314146" maxSpeed="146.544647" guiShape="passenger" />
   <vehicle id="leftE_1" type="vehicleE_1" route="edgeE_edgeS" depart="0" departLane="5" />

   <vType id="vehicleN_2" length="5.281000" accel="2.455000" decel="5.992000" sigma="0.5" minGap="2.314146" maxSpeed="146.544647" guiShape="passenger" />
   <vehicle id="straightN_2" type="vehicleN_2" route="edgeN_edgeS" depart="1" departLane="2" />

   <vType id="vehicleW_3" length="4.473000" accel="2.551000" decel="3.341000" sigma="0.5" minGap="2.314146" maxSpeed="146.544647" guiShape="passenger" />
   <vehicle id="uturnW_3" type="vehicleW_3" route="edgeW_edgeW" depart="1" departLane="5" />

   <vType id="vehicleN_4" length="4.393000" accel="2.537000" decel="3.850000" sigma="0.5" minGap="2.314146" maxSpeed="146.544647" guiShape="passenger" />
   <vehicle id="straightN_4" type="vehicleN_4" route="edgeN_edgeS" depart="5" departLane="1" />

   <vType id="vehicleN_5" length="5.043000" accel="3.232000" decel="5.535000" sigma="0.5" minGap="2.314146" maxSpeed="146.544647" guiShape="passenger" />
   <vehicle id="straightN_5" type="vehicleN_5" route="edgeN_edgeS" depart="6" departLane="1" />

   <vType id="vehicleN_6" length="5.589000" accel="3.163000" decel="5.062000" sigma="0.5" minGap="2.314146" maxSpeed="146.544647" guiShape="passenger" />
   <vehicle id="straightN_6" type="vehicleN_6" route="edgeN_edgeS" depart="7" departLane="2" />

   <vType id="vehicleN_7" length="4.356000" accel="2.684000" decel="6.504000" sigma="0.5" minGap="2.314146" maxSpeed="146.544647" guiShape="passenger" />
   <vehicle id="straightN_7" type="vehicleN_7" route="edgeN_edgeS" depart="8" departLane="2" />

   <vType id="vehicleS_8" length="5.409000" accel="3.166000" decel="3.514000" sigma="0.5" minGap="2.314146" maxSpeed="146.544647" guiShape="passenger" />
   <vehicle id="straightS_8" type="vehicleS_8" route="edgeS_edgeN" depart="8" departLane="1" />

   <vType id="vehicleN_9" length="5.432000" accel="2.894000" decel="3.800000" sigma="0.5" minGap="2.314146" maxSpeed="146.544647" guiShape="passenger" />
   <vehicle id="straightN_9" type="vehicleN_9" route="edgeN_edgeS" depart="9" departLane="1" />

   <vType id="vehicleW_10" length="4.085000" accel="3.149000" decel="5.940000" sigma="0.5" minGap="2.314146" maxSpeed="146.544647" guiShape="passenger" />
   <vehicle id="leftW_10" type="vehicleW_10" route="edgeW_edgeN" depart="9" departLane="5" />

   <vType id="vehicleE_11" length="5.181000" accel="3.307000" decel="4.251000" sigma="0.5" minGap="2.314146" maxSpeed="146.544647" guiShape="passenger" />
   <vehicle id="rightE_11" type="vehicleE_11" route="edgeE_edgeN" depart="11" departLane="1" />

   <vType id="vehicleN_12" length="4.203000" accel="3.468000" decel="6.233000" sigma="0.5" minGap="2.314146" maxSpeed="146.544647" guiShape="passenger" />
   <vehicle id="straightN_12" type="vehicleN_12" route="edgeN_edgeS" depart="13" departLane="2" />

   <vType id="vehicleS_13" length="5.474000" accel="3.474000" decel="5.218000" sigma="0.5" minGap="2.314146" maxSpeed="146.544647" guiShape="passenger" />
   <vehicle id="uturnS_13" type="vehicleS_13" route="edgeS_edgeS" depart="14" departLane="3" />

   <vType id="vehicleE_14" length="5.581000" accel="3.350000" decel="3.875000" sigma="0.5" minGap="2.314146" maxSpeed="146.544647" guiShape="passenger" />
   <vehicle id="straightE_14" type="vehicleE_14" route="edgeE_edgeW" depart="14" departLane="2" />

   <vType id="vehicleW_15" length="4.016000" accel="3.298000" decel="5.842000" sigma="0.5" minGap="2.314146" maxSpeed="146.544647" guiShape="passenger" />
   <vehicle id="straightW_15" type="vehicleW_15" route="edgeW_edgeE" depart="15" departLane="2" />

   <vType id="vehicleS_16" length="4.934000" accel="3.526000" decel="6.452000" sigma="0.5" minGap="2.314146" maxSpeed="146.544647" guiShape="passenger" />
   <vehicle id="straightS_16" type="vehicleS_16" route="edgeS_edgeN" depart="16" departLane="1" />

   <vType id="vehicleN_17" length="3.934000" accel="3.067000" decel="5.179000" sigma="0.5" minGap="2.314146" maxSpeed="146.544647" guiShape="passenger" />
   <vehicle id="leftN_17" type="vehicleN_17" route="edgeN_edgeE" depart="18" departLane="3" />

   <vType id="vehicleS_18" length="4.289000" accel="3.460000" decel="6.193000" sigma="0.5" minGap="2.314146" maxSpeed="146.544647" guiShape="passenger" />
   <vehicle id="rightS_18" type="vehicleS_18" route="edgeS_edgeE" depart="18" departLane="1" />

   <vType id="vehicleS_19" length="4.594000" accel="2.553000" decel="5.443000" sigma="0.5" minGap="2.314146" maxSpeed="146.544647" guiShape="passenger" />
   <vehicle id="straightS_19" type="vehicleS_19" route="edgeS_edgeN" depart="20" departLane="2" />

   <vType id="vehicleE_20" length="4.478000" accel="3.411000" decel="3.909000" sigma="0.5" minGap="2.314146" maxSpeed="146.544647" guiShape="passenger" />
   <vehicle id="straightE_20" type="vehicleE_20" route="edgeE_edgeW" depart="21" departLane="2" />

   <vType id="vehicleS_21" length="4.688000" accel="3.425000" decel="3.262000" sigma="0.5" minGap="2.314146" maxSpeed="146.544647" guiShape="passenger" />
   <vehicle id="straightS_21" type="vehicleS_21" route="edgeS_edgeN" depart="22" departLane="1" />

   <vType id="vehicleW_22" length="5.326000" accel="3.531000" decel="6.442000" sigma="0.5" minGap="2.314146" maxSpeed="146.544647" guiShape="passenger" />
   <vehicle id="uturnW_22" type="vehicleW_22" route="edgeW_edgeW" depart="22" departLane="5" />

   <vType id="vehicleN_23" length="4.263000" accel="2.896000" decel="3.199000" sigma="0.5" minGap="2.314146" maxSpeed="146.544647" guiShape="passenger" />
   <vehicle id="straightN_23" type="vehicleN_23" route="edgeN_edgeS" depart="23" departLane="2" />

   <vType id="vehicleS_24" length="5.481000" accel="3.325000" decel="4.046000" sigma="0.5" minGap="2.314146" maxSpeed="146.544647" guiShape="passenger" />
   <vehicle id="straightS_24" type="vehicleS_24" route="edgeS_edgeN" depart="23" departLane="2" />

   <vType id="vehicleW_25" length="5.553000" accel="3.095000" decel="5.006000" sigma="0.5" minGap="2.314146" maxSpeed="146.544647" guiShape="passenger" />
   <vehicle id="straightW_25" type="vehicleW_25" route="edgeW_edgeE" depart="23" departLane="4" />

   <vType id="vehicleN_26" length="5.469000" accel="3.041000" decel="3.193000" sigma="0.5" minGap="2.314146" maxSpeed="146.544647" guiShape="passenger" />
   <vehicle id="straightN_26" type="vehicleN_26" route="edgeN_edgeS" depart="24" departLane="1" />

   <vType id="vehicleW_27" length="5.370000" accel="2.899000" decel="6.499000" sigma="0.5" minGap="2.314146" maxSpeed="146.544647" guiShape="passenger" />
   <vehicle id="leftW_27" type="vehicleW_27" route="edgeW_edgeN" depart="24" departLane="5" />

   <vType id="vehicleN_28" length="5.021000" accel="3.080000" decel="4.162000" sigma="0.5" minGap="2.314146" maxSpeed="146.544647" guiShape="passenger" />
   <vehicle id="leftN_28" type="vehicleN_28" route="edgeN_edgeE" depart="25" departLane="3" />

   <vType id="vehicleS_29" length="4.306000" accel="2.890000" decel="5.490000" sigma="0.5" minGap="2.314146" maxSpeed="146.544647" guiShape="passenger" />
   <vehicle id="rightS_29" type="vehicleS_29" route="edgeS_edgeE" depart="25" departLane="1" />

   <vType id="vehicleS_30" length="4.860000" accel="2.560000" decel="4.989000" sigma="0.5" minGap="2.314146" maxSpeed="146.544647" guiShape="passenger" />
   <vehicle id="straightS_30" type="vehicleS_30" route="edgeS_edgeN" depart="26" departLane="2" />

   <vType id="vehicleW_31" length="4.016000" accel="2.721000" decel="4.045000" sigma="0.5" minGap="2.314146" maxSpeed="146.544647" guiShape="passenger" />
   <vehicle id="straightW_31" type="vehicleW_31" route="edgeW_edgeE" depart="26" departLane="3" />

   <vType id="vehicleN_32" length="4.410000" accel="3.189000" decel="6.489000" sigma="0.5" minGap="2.314146" maxSpeed="146.544647" guiShape="passenger" />
   <vehicle id="rightN_32" type="vehicleN_32" route="edgeN_edgeW" depart="28" departLane="1" />

   <vType id="vehicleS_33" length="5.166000" accel="2.622000" decel="4.033000" sigma="0.5" minGap="2.314146" maxSpeed="146.544647" guiShape="passenger" />
   <vehicle id="rightS_33" type="vehicleS_33" route="edgeS_edgeE" depart="28" departLane="1" />

   <vType id="vehicleS_34" length="5.445000" accel="3.393000" decel="3.325000" sigma="0.5" minGap="2.314146" maxSpeed="146.544647" guiShape="passenger" />
   <vehicle id="straightS_34" type="vehicleS_34" route="edgeS_edgeN" depart="29" departLane="2" />

   <vType id="vehicleE_35" length="4.122000" accel="3.543000" decel="3.584000" sigma="0.5" minGap="2.314146" maxSpeed="146.544647" guiShape="passenger" />
   <vehicle id="straightE_35" type="vehicleE_35" route="edgeE_edgeW" depart="29" departLane="3" />

   <vType id="vehicleW_36" length="5.407000" accel="3.458000" decel="5.019000" sigma="0.5" minGap="2.314146" maxSpeed="146.544647" guiShape="passenger" />
   <vehicle id="leftW_36" type="vehicleW_36" route="edgeW_edgeN" depart="30" departLane="5" />

   <vType id="vehicleN_37" length="4.425000" accel="3.453000" decel="5.955000" sigma="0.5" minGap="2.314146" maxSpeed="146.544647" guiShape="passenger" />
   <vehicle id="leftN_37" type="vehicleN_37" route="edgeN_edgeE" depart="31" departLane="3" />

   <vType id="vehicleN_38" length="5.409000" accel="2.902000" decel="5.300000" sigma="0.5" minGap="2.314146" maxSpeed="146.544647" guiShape="passenger" />
   <vehicle id="rightN_38" type="vehicleN_38" route="edgeN_edgeW" depart="32" departLane="1" />

   <vType id="vehicleE_39" length="4.201000" accel="2.909000" decel="3.650000" sigma="0.5" minGap="2.314146" maxSpeed="146.544647" guiShape="passenger" />
   <vehicle id="rightE_39" type="vehicleE_39" route="edgeE_edgeN" depart="32" departLane="1" />

   <vType id="vehicleN_40" length="5.096000" accel="2.875000" decel="3.125000" sigma="0.5" minGap="2.314146" maxSpeed="146.544647" guiShape="passenger" />
   <vehicle id="leftN_40" type="vehicleN_40" route="edgeN_edgeE" depart="34" departLane="3" />

   <vType id="vehicleS_41" length="4.684000" accel="2.789000" decel="5.952000" sigma="0.5" minGap="2.314146" maxSpeed="146.544647" guiShape="passenger" />
   <vehicle id="rightS_41" type="vehicleS_41" route="edgeS_edgeE" depart="34" departLane="1" />

   <vType id="vehicleS_42" length="5.219000" accel="2.840000" decel="4.884000" sigma="0.5" minGap="2.314146" maxSpeed="146.544647" guiShape="passenger" />
   <vehicle id="leftS_42" type="vehicleS_42" route="edgeS_edgeW" depart="35" departLane="3" />

   <vType id="vehicleE_43" length="4.203000" accel="3.524000" decel="3.972000" sigma="0.5" minGap="2.314146" maxSpeed="146.544647" guiShape="passenger" />
   <vehicle id="uturnE_43" type="vehicleE_43" route="edgeE_edgeE" depart="35" departLane="5" />

   <vType id="vehicleN_44" length="5.143000" accel="2.798000" decel="5.246000" sigma="0.5" minGap="2.314146" maxSpeed="146.544647" guiShape="passenger" />
   <vehicle id="straightN_44" type="vehicleN_44" route="edgeN_edgeS" depart="36" departLane="1" />

   <vType id="vehicleS_45" length="4.818000" accel="3.252000" decel="5.753000" sigma="0.5" minGap="2.314146" maxSpeed="146.544647" guiShape="passenger" />
   <vehicle id="uturnS_45" type="vehicleS_45" route="edgeS_edgeS" depart="37" departLane="3" />

   <vType id="vehicleN_46" length="4.462000" accel="2.799000" decel="6.149000" sigma="0.5" minGap="2.314146" maxSpeed="146.544647" guiShape="passenger" />
   <vehicle id="rightN_46" type="vehicleN_46" route="edgeN_edgeW" depart="38" departLane="1" />

   <vType id="vehicleS_47" length="4.299000" accel="2.795000" decel="5.994000" sigma="0.5" minGap="2.314146" maxSpeed="146.544647" guiShape="passenger" />
   <vehicle id="uturnS_47" type="vehicleS_47" route="edgeS_edgeS" depart="45" departLane="3" />

   <vType id="vehicleW_48" length="5.579000" accel="3.131000" decel="5.852000" sigma="0.5" minGap="2.314146" maxSpeed="146.544647" guiShape="passenger" />
   <vehicle id="leftW_48" type="vehicleW_48" route="edgeW_edgeN" depart="45" departLane="5" />

   <vType id="vehicleS_49" length="4.743000" accel="2.721000" decel="5.432000" sigma="0.5" minGap="2.314146" maxSpeed="146.544647" guiShape="passenger" />
   <vehicle id="rightS_49" type="vehicleS_49" route="edgeS_edgeE" depart="46" departLane="1" />

   <vType id="vehicleN_50" length="4.692000" accel="3.041000" decel="5.069000" sigma="0.5" minGap="2.314146" maxSpeed="146.544647" guiShape="passenger" />
   <vehicle id="leftN_50" type="vehicleN_50" route="edgeN_edgeE" depart="49" departLane="3" />

   <vType id="vehicleN_51" length="5.206000" accel="3.030000" decel="5.322000" sigma="0.5" minGap="2.314146" maxSpeed="146.544647" guiShape="passenger" />
   <vehicle id="rightN_51" type="vehicleN_51" route="edgeN_edgeW" depart="52" departLane="1" />

   <vType id="vehicleN_52" length="4.036000" accel="2.616000" decel="4.412000" sigma="0.5" minGap="2.314146" maxSpeed="146.544647" guiShape="passenger" />
   <vehicle id="rightN_52" type="vehicleN_52" route="edgeN_edgeW" depart="53" departLane="1" />

   <vType id="vehicleW_53" length="4.825000" accel="2.913000" decel="3.753000" sigma="0.5" minGap="2.314146" maxSpeed="146.544647" guiShape="passenger" />
   <vehicle id="straightW_53" type="vehicleW_53" route="edgeW_edgeE" depart="53" departLane="3" />

   <vType id="vehicleW_54" length="4.882000" accel="2.981000" decel="6.503000" sigma="0.5" minGap="2.314146" maxSpeed="146.544647" guiShape="passenger" />
   <vehicle id="rightW_54" type="vehicleW_54" route="edgeW_edgeS" depart="54" departLane="1" />

   <vType id="vehicleS_55" length="5.058000" accel="2.900000" decel="3.597000" sigma="0.5" minGap="2.314146" maxSpeed="146.544647" guiShape="passenger" />
   <vehicle id="straightS_55" type="vehicleS_55" route="edgeS_edgeN" depart="57" departLane="2" />

   <vType id="vehicleN_56" length="5.379000" accel="2.651000" decel="3.952000" sigma="0.5" minGap="2.314146" maxSpeed="146.544647" guiShape="passenger" />
   <vehicle id="straightN_56" type="vehicleN_56" route="edgeN_edgeS" depart="59" departLane="2" />

   <vType id="vehicleS_57" length="5.199000" accel="2.872000" decel="5.791000" sigma="0.5" minGap="2.314146" maxSpeed="146.544647" guiShape="passenger" />
   <vehicle id="straightS_57" type="vehicleS_57" route="edgeS_edgeN" depart="59" departLane="2" />

   <vType id="vehicleE_58" length="4.820000" accel="3.565000" decel="4.288000" sigma="0.5" minGap="2.314146" maxSpeed="146.544647" guiShape="passenger" />
   <vehicle id="leftE_58" type="vehicleE_58" route="edgeE_edgeS" depart="59" departLane="5" />

   <vType id="vehicleN_59" length="4.158000" accel="2.589000" decel="5.482000" sigma="0.5" minGap="2.314146" maxSpeed="146.544647" guiShape="passenger" />
   <vehicle id="leftN_59" type="vehicleN_59" route="edgeN_edgeE" depart="61" departLane="3" />

   <vType id="vehicleN_60" length="4.887000" accel="3.486000" decel="5.132000" sigma="0.5" minGap="2.314146" maxSpeed="146.544647" guiShape="passenger" />
   <vehicle id="straightN_60" type="vehicleN_60" route="edgeN_edgeS" depart="63" departLane="2" />

   <vType id="vehicleE_61" length="4.970000" accel="2.562000" decel="5.867000" sigma="0.5" minGap="2.314146" maxSpeed="146.544647" guiShape="passenger" />
   <vehicle id="straightE_61" type="vehicleE_61" route="edgeE_edgeW" depart="63" departLane="4" />

   <vType id="vehicleS_62" length="5.235000" accel="2.836000" decel="4.581000" sigma="0.5" minGap="2.314146" maxSpeed="146.544647" guiShape="passenger" />
   <vehicle id="uturnS_62" type="vehicleS_62" route="edgeS_edgeS" depart="64" departLane="3" />

   <vType id="vehicleN_63" length="5.303000" accel="2.566000" decel="6.571000" sigma="0.5" minGap="2.314146" maxSpeed="146.544647" guiShape="passenger" />
   <vehicle id="rightN_63" type="vehicleN_63" route="edgeN_edgeW" depart="65" departLane="1" />

   <vType id="vehicleS_64" length="4.818000" accel="2.988000" decel="4.608000" sigma="0.5" minGap="2.314146" maxSpeed="146.544647" guiShape="passenger" />
   <vehicle id="rightS_64" type="vehicleS_64" route="edgeS_edgeE" depart="66" departLane="1" />

   <vType id="vehicleS_65" length="5.180000" accel="3.085000" decel="5.477000" sigma="0.5" minGap="2.314146" maxSpeed="146.544647" guiShape="passenger" />
   <vehicle id="straightS_65" type="vehicleS_65" route="edgeS_edgeN" depart="67" departLane="2" />

   <vType id="vehicleW_66" length="4.209000" accel="2.685000" decel="5.962000" sigma="0.5" minGap="2.314146" maxSpeed="146.544647" guiShape="passenger" />
   <vehicle id="rightW_66" type="vehicleW_66" route="edgeW_edgeS" depart="67" departLane="1" />

   <vType id="vehicleN_67" length="4.592000" accel="3.068000" decel="3.878000" sigma="0.5" minGap="2.314146" maxSpeed="146.544647" guiShape="passenger" />
   <vehicle id="straightN_67" type="vehicleN_67" route="edgeN_edgeS" depart="69" departLane="2" />

   <vType id="vehicleN_68" length="5.080000" accel="2.790000" decel="5.153000" sigma="0.5" minGap="2.314146" maxSpeed="146.544647" guiShape="passenger" />
   <vehicle id="straightN_68" type="vehicleN_68" route="edgeN_edgeS" depart="70" departLane="2" />

   <vType id="vehicleN_69" length="4.437000" accel="3.278000" decel="6.534000" sigma="0.5" minGap="2.314146" maxSpeed="146.544647" guiShape="passenger" />
   <vehicle id="rightN_69" type="vehicleN_69" route="edgeN_edgeW" depart="72" departLane="1" />

   <vType id="vehicleS_70" length="4.371000" accel="3.107000" decel="5.821000" sigma="0.5" minGap="2.314146" maxSpeed="146.544647" guiShape="passenger" />
   <vehicle id="rightS_70" type="vehicleS_70" route="edgeS_edgeE" depart="72" departLane="1" />

   <vType id="vehicleN_71" length="4.415000" accel="3.239000" decel="3.453000" sigma="0.5" minGap="2.314146" maxSpeed="146.544647" guiShape="passenger" />
   <vehicle id="straightN_71" type="vehicleN_71" route="edgeN_edgeS" depart="73" departLane="1" />

   <vType id="vehicleN_72" length="4.737000" accel="3.423000" decel="5.125000" sigma="0.5" minGap="2.314146" maxSpeed="146.544647" guiShape="passenger" />
   <vehicle id="rightN_72" type="vehicleN_72" route="edgeN_edgeW" depart="74" departLane="1" />

   <vType id="vehicleN_73" length="4.093000" accel="2.521000" decel="4.818000" sigma="0.5" minGap="2.314146" maxSpeed="146.544647" guiShape="passenger" />
   <vehicle id="rightN_73" type="vehicleN_73" route="edgeN_edgeW" depart="75" departLane="1" />

   <vType id="vehicleS_74" length="5.520000" accel="2.543000" decel="3.908000" sigma="0.5" minGap="2.314146" maxSpeed="146.544647" guiShape="passenger" />
   <vehicle id="rightS_74" type="vehicleS_74" route="edgeS_edgeE" depart="75" departLane="1" />

   <vType id="vehicleN_75" length="4.668000" accel="2.943000" decel="6.195000" sigma="0.5" minGap="2.314146" maxSpeed="146.544647" guiShape="passenger" />
   <vehicle id="straightN_75" type="vehicleN_75" route="edgeN_edgeS" depart="76" departLane="2" />

   <vType id="vehicleS_76" length="4.940000" accel="3.275000" decel="6.521000" sigma="0.5" minGap="2.314146" maxSpeed="146.544647" guiShape="passenger" />
   <vehicle id="straightS_76" type="vehicleS_76" route="edgeS_edgeN" depart="76" departLane="1" />

   <vType id="vehicleN_77" length="4.841000" accel="2.623000" decel="4.507000" sigma="0.5" minGap="2.314146" maxSpeed="146.544647" guiShape="passenger" />
   <vehicle id="straightN_77" type="vehicleN_77" route="edgeN_edgeS" depart="77" departLane="2" />

   <vType id="vehicleS_78" length="5.106000" accel="3.234000" decel="4.677000" sigma="0.5" minGap="2.314146" maxSpeed="146.544647" guiShape="passenger" />
   <vehicle id="straightS_78" type="vehicleS_78" route="edgeS_edgeN" depart="77" departLane="1" />

   <vType id="vehicleN_79" length="4.424000" accel="3.285000" decel="5.107000" sigma="0.5" minGap="2.314146" maxSpeed="146.544647" guiShape="passenger" />
   <vehicle id="leftN_79" type="vehicleN_79" route="edgeN_edgeE" depart="80" departLane="3" />

   <vType id="vehicleS_80" length="4.646000" accel="3.116000" decel="6.304000" sigma="0.5" minGap="2.314146" maxSpeed="146.544647" guiShape="passenger" />
   <vehicle id="straightS_80" type="vehicleS_80" route="edgeS_edgeN" depart="81" departLane="2" />

   <vType id="vehicleE_81" length="5.050000" accel="3.410000" decel="5.174000" sigma="0.5" minGap="2.314146" maxSpeed="146.544647" guiShape="passenger" />
   <vehicle id="straightE_81" type="vehicleE_81" route="edgeE_edgeW" depart="81" departLane="2" />

   <vType id="vehicleE_82" length="4.702000" accel="3.176000" decel="6.404000" sigma="0.5" minGap="2.314146" maxSpeed="146.544647" guiShape="passenger" />
   <vehicle id="rightE_82" type="vehicleE_82" route="edgeE_edgeN" depart="82" departLane="1" />

   <vType id="vehicleE_83" length="4.601000" accel="3.002000" decel="5.456000" sigma="0.5" minGap="2.314146" maxSpeed="146.544647" guiShape="passenger" />
   <vehicle id="leftE_83" type="vehicleE_83" route="edgeE_edgeS" depart="84" departLane="5" />

   <vType id="vehicleN_84" length="4.589000" accel="3.023000" decel="6.673000" sigma="0.5" minGap="2.314146" maxSpeed="146.544647" guiShape="passenger" />
   <vehicle id="uturnN_84" type="vehicleN_84" route="edgeN_edgeN" depart="86" departLane="3" />

   <vType id="vehicleN_85" length="5.190000" accel="3.147000" decel="5.820000" sigma="0.5" minGap="2.314146" maxSpeed="146.544647" guiShape="passenger" />
   <vehicle id="straightN_85" type="vehicleN_85" route="edgeN_edgeS" depart="87" departLane="1" />

   <vType id="vehicleS_86" length="4.390000" accel="3.432000" decel="4.792000" sigma="0.5" minGap="2.314146" maxSpeed="146.544647" guiShape="passenger" />
   <vehicle id="leftS_86" type="vehicleS_86" route="edgeS_edgeW" depart="87" departLane="3" />

   <vType id="vehicleN_87" length="4.839000" accel="3.065000" decel="3.328000" sigma="0.5" minGap="2.314146" maxSpeed="146.544647" guiShape="passenger" />
   <vehicle id="leftN_87" type="vehicleN_87" route="edgeN_edgeE" depart="88" departLane="3" />

   <vType id="vehicleW_88" length="4.750000" accel="3.249000" decel="4.882000" sigma="0.5" minGap="2.314146" maxSpeed="146.544647" guiShape="passenger" />
   <vehicle id="rightW_88" type="vehicleW_88" route="edgeW_edgeS" depart="88" departLane="1" />

   <vType id="vehicleE_89" length="4.922000" accel="3.282000" decel="3.490000" sigma="0.5" minGap="2.314146" maxSpeed="146.544647" guiShape="passenger" />
   <vehicle id="straightE_89" type="vehicleE_89" route="edgeE_edgeW" depart="89" departLane="2" />

   <vType id="vehicleN_90" length="4.607000" accel="3.492000" decel="4.878000" sigma="0.5" minGap="2.314146" maxSpeed="146.544647" guiShape="passenger" />
   <vehicle id="rightN_90" type="vehicleN_90" route="edgeN_edgeW" depart="90" departLane="1" />

   <vType id="vehicleS_91" length="4.901000" accel="3.564000" decel="4.810000" sigma="0.5" minGap="2.314146" maxSpeed="146.544647" guiShape="passenger" />
   <vehicle id="straightS_91" type="vehicleS_91" route="edgeS_edgeN" depart="90" departLane="1" />

   <vType id="vehicleN_92" length="4.543000" accel="3.490000" decel="6.230000" sigma="0.5" minGap="2.314146" maxSpeed="146.544647" guiShape="passenger" />
   <vehicle id="rightN_92" type="vehicleN_92" route="edgeN_edgeW" depart="91" departLane="1" />

   <vType id="vehicleN_93" length="5.103000" accel="3.355000" decel="4.423000" sigma="0.5" minGap="2.314146" maxSpeed="146.544647" guiShape="passenger" />
   <vehicle id="rightN_93" type="vehicleN_93" route="edgeN_edgeW" depart="92" departLane="1" />

   <vType id="vehicleW_94" length="4.906000" accel="3.420000" decel="6.247000" sigma="0.5" minGap="2.314146" maxSpeed="146.544647" guiShape="passenger" />
   <vehicle id="straightW_94" type="vehicleW_94" route="edgeW_edgeE" depart="92" departLane="3" />

   <vType id="vehicleE_95" length="3.924000" accel="2.609000" decel="6.235000" sigma="0.5" minGap="2.314146" maxSpeed="146.544647" guiShape="passenger" />
   <vehicle id="uturnE_95" type="vehicleE_95" route="edgeE_edgeE" depart="92" departLane="5" />

   <vType id="vehicleS_96" length="4.351000" accel="3.144000" decel="4.466000" sigma="0.5" minGap="2.314146" maxSpeed="146.544647" guiShape="passenger" />
   <vehicle id="rightS_96" type="vehicleS_96" route="edgeS_edgeE" depart="93" departLane="1" />

   <vType id="vehicleW_97" length="4.976000" accel="3.477000" decel="6.708000" sigma="0.5" minGap="2.314146" maxSpeed="146.544647" guiShape="passenger" />
   <vehicle id="leftW_97" type="vehicleW_97" route="edgeW_edgeN" depart="95" departLane="5" />

   <vType id="vehicleN_98" length="5.389000" accel="2.944000" decel="5.574000" sigma="0.5" minGap="2.314146" maxSpeed="146.544647" guiShape="passenger" />
   <vehicle id="rightN_98" type="vehicleN_98" route="edgeN_edgeW" depart="96" departLane="1" />

   <vType id="vehicleS_99" length="4.399000" accel="2.867000" decel="3.524000" sigma="0.5" minGap="2.314146" maxSpeed="146.544647" guiShape="passenger" />
   <vehicle id="rightS_99" type="vehicleS_99" route="edgeS_edgeE" depart="96" departLane="1" />

   <vType id="vehicleN_100" length="5.386000" accel="3.140000" decel="3.880000" sigma="0.5" minGap="2.314146" maxSpeed="146.544647" guiShape="passenger" />
   <vehicle id="leftN_100" type="vehicleN_100" route="edgeN_edgeE" depart="97" departLane="3" />

   <vType id="vehicleS_101" length="4.683000" accel="3.193000" decel="6.340000" sigma="0.5" minGap="2.314146" maxSpeed="146.544647" guiShape="passenger" />
   <vehicle id="rightS_101" type="vehicleS_101" route="edgeS_edgeE" depart="97" departLane="1" />

   <vType id="vehicleN_102" length="4.488000" accel="3.105000" decel="5.368000" sigma="0.5" minGap="2.314146" maxSpeed="146.544647" guiShape="passenger" />
   <vehicle id="straightN_102" type="vehicleN_102" route="edgeN_edgeS" depart="98" departLane="2" />

   <vType id="vehicleW_103" length="4.511000" accel="2.779000" decel="5.593000" sigma="0.5" minGap="2.314146" maxSpeed="146.544647" guiShape="passenger" />
   <vehicle id="straightW_103" type="vehicleW_103" route="edgeW_edgeE" depart="99" departLane="2" />

   <vType id="vehicleS_104" length="5.070000" accel="3.280000" decel="3.163000" sigma="0.5" minGap="2.314146" maxSpeed="146.544647" guiShape="passenger" />
   <vehicle id="straightS_104" type="vehicleS_104" route="edgeS_edgeN" depart="100" departLane="2" />

   <vType id="vehicleS_105" length="4.272000" accel="2.660000" decel="3.917000" sigma="0.5" minGap="2.314146" maxSpeed="146.544647" guiShape="passenger" />
   <vehicle id="rightS_105" type="vehicleS_105" route="edgeS_edgeE" depart="101" departLane="1" />

   <vType id="vehicleS_106" length="4.888000" accel="3.266000" decel="3.317000" sigma="0.5" minGap="2.314146" maxSpeed="146.544647" guiShape="passenger" />
   <vehicle id="straightS_106" type="vehicleS_106" route="edgeS_edgeN" depart="102" departLane="2" />

   <vType id="vehicleN_107" length="5.395000" accel="2.857000" decel="4.855000" sigma="0.5" minGap="2.314146" maxSpeed="146.544647" guiShape="passenger" />
   <vehicle id="rightN_107" type="vehicleN_107" route="edgeN_edgeW" depart="103" departLane="1" />

   <vType id="vehicleN_108" length="4.139000" accel="3.528000" decel="6.195000" sigma="0.5" minGap="2.314146" maxSpeed="146.544647" guiShape="passenger" />
   <vehicle id="uturnN_108" type="vehicleN_108" route="edgeN_edgeN" depart="105" departLane="3" />

   <vType id="vehicleE_109" length="4.675000" accel="3.200000" decel="5.493000" sigma="0.5" minGap="2.314146" maxSpeed="146.544647" guiShape="passenger" />