<?xml version="1.0" encoding="UTF-8"?>

<!-- generated on 2021-10-22 20:49:12 by Eclipse SUMO netconvert Version 1.10.0
<configuration xmlns:xsi="http://www.w3.org/2001/XMLSchema-instance" xsi:noNamespaceSchemaLocation="http://sumo.dlr.de/xsd/netconvertConfiguration.xsd">

    <input>
        <node-files value="data/cross.nod.xml"/>
        <edge-files value="data/cross.edg.xml"/>
        <connection-files value="data/cross.con.xml"/>
    </input>

    <output>
        <output-file value="data/cross.net.xml"/>
    </output>

    <junctions>
        <no-turnarounds.except-turnlane value="true"/>
    </junctions>

    <report>
        <aggregate-warnings value="5"/>
    </report>

</configuration>
-->

<net version="1.9" junctionCornerDetail="5" limitTurnSpeed="5.50" xmlns:xsi="http://www.w3.org/2001/XMLSchema-instance" xsi:noNamespaceSchemaLocation="http://sumo.dlr.de/xsd/net_file.xsd">

    <location netOffset="50.00,50.00" convBoundary="0.00,0.00,100.00,100.00" origBoundary="-50.00,-50.00,50.00,50.00" projParameter="!"/>

    <edge id=":juncE_0" function="internal">
        <lane id=":juncE_0_0" index="0" disallow="pedestrian" speed="3.65" length="4.67" shape="100.00,48.40 101.20,49.20 101.60,50.00 101.20,50.80 100.00,51.60"/>
    </edge>
    <edge id=":juncE_w0" function="walkingarea">
        <lane id=":juncE_w0_0" index="0" allow="pedestrian" speed="1.00" length="22.40" width="3.20" shape="100.00,59.60 100.00,62.80 100.00,37.20 100.00,40.40"/>
    </edge>
    <edge id=":juncMain_0" function="internal">
        <lane id=":juncMain_0_0" index="0" allow="pedestrian" speed="15.00" length="28.60" shape="38.80,64.30 38.80,35.70"/>
    </edge>
    <edge id=":juncMain_1" function="internal">
        <lane id=":juncMain_1_0" index="0" disallow="pedestrian" speed="6.86" length="5.08" shape="42.00,64.30 41.61,61.54 40.42,59.58"/>
        <lane id=":juncMain_1_1" index="1" disallow="pedestrian" speed="7.64" length="7.37" shape="42.00,64.30 41.61,60.14 40.42,57.17"/>
    </edge>
    <edge id=":juncMain_3" function="internal">
        <lane id=":juncMain_3_0" index="0" disallow="pedestrian" speed="15.00" length="28.60" shape="42.00,64.30 42.00,35.70"/>
        <lane id=":juncMain_3_1" index="1" disallow="pedestrian" speed="15.00" length="28.60" shape="45.20,64.30 45.20,35.70"/>
        <lane id=":juncMain_3_2" index="2" disallow="pedestrian" speed="15.00" length="28.60" shape="48.40,64.30 48.40,35.70"/>
    </edge>
    <edge id=":juncMain_6" function="internal">
        <lane id=":juncMain_6_0" index="0" disallow="pedestrian" speed="11.10" length="9.77" shape="48.40,64.30 49.39,55.94 50.00,54.73"/>
        <lane id=":juncMain_6_1" index="1" disallow="pedestrian" speed="10.59" length="8.21" shape="48.40,64.30 49.39,57.34 50.00,56.33"/>
    </edge>
    <edge id=":juncMain_8" function="internal">
        <lane id=":juncMain_8_0" index="0" disallow="pedestrian" speed="3.65" length="2.34" shape="48.40,64.30 49.20,63.10 50.00,62.70"/>
    </edge>
    <edge id=":juncMain_33" function="internal">
        <lane id=":juncMain_33_0" index="0" disallow="pedestrian" speed="6.86" length="5.08" shape="40.42,59.58 38.46,58.39 35.70,58.00"/>
    </edge>
    <edge id=":juncMain_34" function="internal">
        <lane id=":juncMain_34_0" index="0" disallow="pedestrian" speed="7.64" length="5.47" shape="40.42,57.17 38.46,55.39 35.70,54.80"/>
    </edge>
    <edge id=":juncMain_35" function="internal">
        <lane id=":juncMain_35_0" index="0" disallow="pedestrian" speed="11.10" length="18.50" shape="50.00,54.73 52.38,49.97 57.34,46.39 64.30,45.20"/>
    </edge>
    <edge id=":juncMain_36" function="internal">
        <lane id=":juncMain_36_0" index="0" disallow="pedestrian" speed="10.59" length="17.44" shape="50.00,56.33 52.38,52.37 57.34,49.39 64.30,48.40"/>
    </edge>
    <edge id=":juncMain_37" function="internal">
        <lane id=":juncMain_37_0" index="0" disallow="pedestrian" speed="3.65" length="2.34" shape="50.00,62.70 50.80,63.10 51.60,64.30"/>
    </edge>
    <edge id=":juncMain_9" function="internal">
        <lane id=":juncMain_9_0" index="0" disallow="pedestrian" speed="6.86" length="5.93" shape="64.30,58.00 61.54,58.39 59.58,59.58 59.14,60.30"/>
        <lane id=":juncMain_9_1" index="1" disallow="pedestrian" speed="7.64" length="8.35" shape="64.30,58.00 60.14,58.39 57.17,59.58 56.52,60.30"/>
    </edge>
    <edge id=":juncMain_11" function="internal">
        <lane id=":juncMain_11_0" index="0" disallow="pedestrian" speed="15.00" length="28.60" shape="64.30,58.00 35.70,58.00"/>
        <lane id=":juncMain_11_1" index="1" disallow="pedestrian" speed="15.00" length="28.60" shape="64.30,54.80 35.70,54.80"/>
        <lane id=":juncMain_11_2" index="2" disallow="pedestrian" speed="15.00" length="28.60" shape="64.30,51.60 35.70,51.60"/>
    </edge>
    <edge id=":juncMain_14" function="internal">
        <lane id=":juncMain_14_0" index="0" disallow="pedestrian" speed="11.10" length="9.77" shape="64.30,51.60 55.94,50.61 54.73,50.00"/>
        <lane id=":juncMain_14_1" index="1" disallow="pedestrian" speed="10.59" length="8.21" shape="64.30,51.60 57.34,50.61 56.33,50.00"/>
    </edge>
    <edge id=":juncMain_16" function="internal">
        <lane id=":juncMain_16_0" index="0" disallow="pedestrian" speed="3.65" length="2.34" shape="64.30,51.60 63.10,50.80 62.70,50.00"/>
    </edge>
    <edge id=":juncMain_38" function="internal">
        <lane id=":juncMain_38_0" index="0" disallow="pedestrian" speed="6.86" length="4.23" shape="59.14,60.30 58.39,61.54 58.00,64.30"/>
    </edge>
    <edge id=":juncMain_39" function="internal">
        <lane id=":juncMain_39_0" index="0" disallow="pedestrian" speed="7.64" length="4.50" shape="56.52,60.30 55.39,61.54 54.80,64.30"/>
    </edge>
    <edge id=":juncMain_40" function="internal">
        <lane id=":juncMain_40_0" index="0" disallow="pedestrian" speed="11.10" length="18.50" shape="54.73,50.00 49.97,47.62 46.39,42.66 45.20,35.70"/>
    </edge>
    <edge id=":juncMain_41" function="internal">
        <lane id=":juncMain_41_0" index="0" disallow="pedestrian" speed="10.59" length="17.44" shape="56.33,50.00 52.37,47.62 49.39,42.66 48.40,35.70"/>
    </edge>
    <edge id=":juncMain_42" function="internal">
        <lane id=":juncMain_42_0" index="0" disallow="pedestrian" speed="3.65" length="2.34" shape="62.70,50.00 63.10,49.20 64.30,48.40"/>
    </edge>
    <edge id=":juncMain_17" function="internal">
        <lane id=":juncMain_17_0" index="0" disallow="pedestrian" speed="6.86" length="5.93" shape="58.00,35.70 58.39,38.46 59.58,40.42 60.30,40.86"/>
        <lane id=":juncMain_17_1" index="1" disallow="pedestrian" speed="7.64" length="8.35" shape="58.00,35.70 58.39,39.86 59.58,42.83 60.30,43.48"/>
    </edge>
    <edge id=":juncMain_19" function="internal">
        <lane id=":juncMain_19_0" index="0" disallow="pedestrian" speed="15.00" length="28.60" shape="58.00,35.70 58.00,64.30"/>
        <lane id=":juncMain_19_1" index="1" disallow="pedestrian" speed="15.00" length="28.60" shape="54.80,35.70 54.80,64.30"/>
        <lane id=":juncMain_19_2" index="2" disallow="pedestrian" speed="15.00" length="28.60" shape="51.60,35.70 51.60,64.30"/>
    </edge>
    <edge id=":juncMain_22" function="internal">
        <lane id=":juncMain_22_0" index="0" disallow="pedestrian" speed="11.10" length="9.77" shape="51.60,35.70 50.61,44.06 50.00,45.27"/>
        <lane id=":juncMain_22_1" index="1" disallow="pedestrian" speed="10.59" length="8.21" shape="51.60,35.70 50.61,42.66 50.00,43.67"/>
    </edge>
    <edge id=":juncMain_24" function="internal">
        <lane id=":juncMain_24_0" index="0" disallow="pedestrian" speed="3.65" length="2.34" shape="51.60,35.70 50.80,36.90 50.00,37.30"/>
    </edge>
    <edge id=":juncMain_43" function="internal">
        <lane id=":juncMain_43_0" index="0" disallow="pedestrian" speed="6.86" length="4.23" shape="60.30,40.86 61.54,41.61 64.30,42.00"/>
    </edge>
    <edge id=":juncMain_44" function="internal">
        <lane id=":juncMain_44_0" index="0" disallow="pedestrian" speed="7.64" length="4.50" shape="60.30,43.48 61.54,44.61 64.30,45.20"/>
    </edge>
    <edge id=":juncMain_45" function="internal">
        <lane id=":juncMain_45_0" index="0" disallow="pedestrian" speed="11.10" length="18.50" shape="50.00,45.27 47.62,50.03 42.66,53.61 35.70,54.80"/>
    </edge>
    <edge id=":juncMain_46" function="internal">
        <lane id=":juncMain_46_0" index="0" disallow="pedestrian" speed="10.59" length="17.44" shape="50.00,43.67 47.62,47.62 42.66,50.61 35.70,51.60"/>
    </edge>
    <edge id=":juncMain_47" function="internal">
        <lane id=":juncMain_47_0" index="0" disallow="pedestrian" speed="3.65" length="2.34" shape="50.00,37.30 49.20,36.90 48.40,35.70"/>
    </edge>
    <edge id=":juncMain_25" function="internal">
        <lane id=":juncMain_25_0" index="0" disallow="pedestrian" speed="6.86" length="5.93" shape="35.70,42.00 38.46,41.61 40.42,40.42 40.86,39.70"/>
        <lane id=":juncMain_25_1" index="1" disallow="pedestrian" speed="7.64" length="8.35" shape="35.70,42.00 39.86,41.61 42.83,40.42 43.48,39.70"/>
    </edge>
    <edge id=":juncMain_27" function="internal">
        <lane id=":juncMain_27_0" index="0" disallow="pedestrian" speed="15.00" length="28.60" shape="35.70,42.00 64.30,42.00"/>
        <lane id=":juncMain_27_1" index="1" disallow="pedestrian" speed="15.00" length="28.60" shape="35.70,45.20 64.30,45.20"/>
        <lane id=":juncMain_27_2" index="2" disallow="pedestrian" speed="15.00" length="28.60" shape="35.70,48.40 64.30,48.40"/>
    </edge>
    <edge id=":juncMain_30" function="internal">
        <lane id=":juncMain_30_0" index="0" disallow="pedestrian" speed="11.10" length="9.77" shape="35.70,48.40 44.06,49.39 45.27,50.00"/>
        <lane id=":juncMain_30_1" index="1" disallow="pedestrian" speed="10.59" length="8.21" shape="35.70,48.40 42.66,49.39 43.67,50.00"/>
    </edge>
    <edge id=":juncMain_32" function="internal">
        <lane id=":juncMain_32_0" index="0" disallow="pedestrian" speed="3.65" length="2.34" shape="35.70,48.40 36.90,49.20 37.30,50.00"/>
    </edge>
    <edge id=":juncMain_48" function="internal">
        <lane id=":juncMain_48_0" index="0" disallow="pedestrian" speed="6.86" length="4.23" shape="40.86,39.70 41.61,38.46 42.00,35.70"/>
    </edge>
    <edge id=":juncMain_49" function="internal">
        <lane id=":juncMain_49_0" index="0" disallow="pedestrian" speed="7.64" length="4.50" shape="43.48,39.70 44.61,38.46 45.20,35.70"/>
    </edge>
    <edge id=":juncMain_50" function="internal">
        <lane id=":juncMain_50_0" index="0" disallow="pedestrian" speed="11.10" length="18.50" shape="45.27,50.00 50.03,52.38 53.61,57.34 54.80,64.30"/>
    </edge>
    <edge id=":juncMain_51" function="internal">
        <lane id=":juncMain_51_0" index="0" disallow="pedestrian" speed="10.59" length="17.44" shape="43.67,50.00 47.62,52.38 50.61,57.34 51.60,64.30"/>
    </edge>
    <edge id=":juncMain_52" function="internal">
        <lane id=":juncMain_52_0" index="0" disallow="pedestrian" speed="3.65" length="2.34" shape="37.30,50.00 36.90,50.80 35.70,51.60"/>
    </edge>
    <edge id=":juncMain_c0" function="crossing" crossingEdges="edgeN_I edgeN_O">
        <lane id=":juncMain_c0_0" index="0" allow="pedestrian" speed="1.00" length="19.20" width="4.00" shape="59.60,62.30 40.40,62.30"/>
    </edge>
    <edge id=":juncMain_c1" function="crossing" crossingEdges="edgeE_I edgeE_O">
        <lane id=":juncMain_c1_0" index="0" allow="pedestrian" speed="1.00" length="19.20" width="4.00" shape="62.30,40.40 62.30,59.60"/>
    </edge>
    <edge id=":juncMain_c2" function="crossing" crossingEdges="edgeS_I edgeS_O">
        <lane id=":juncMain_c2_0" index="0" allow="pedestrian" speed="1.00" length="19.20" width="4.00" shape="40.40,37.70 59.60,37.70"/>
    </edge>
    <edge id=":juncMain_c3" function="crossing" crossingEdges="edgeW_I edgeW_O">
        <lane id=":juncMain_c3_0" index="0" allow="pedestrian" speed="1.00" length="19.20" width="4.00" shape="37.70,59.60 37.70,40.40"/>
    </edge>
    <edge id=":juncMain_w0" function="walkingarea">
        <lane id=":juncMain_w0_0" index="0" allow="pedestrian" speed="1.00" length="3.83" width="4.00" shape="35.70,59.60 35.70,62.80 37.20,64.30 40.40,64.30 40.27,62.86 39.88,61.69 39.22,60.77 38.31,60.12 37.14,59.73"/>
    </edge>
    <edge id=":juncMain_w1" function="walkingarea">
        <lane id=":juncMain_w1_0" index="0" allow="pedestrian" speed="1.00" length="3.83" width="4.00" shape="59.60,64.30 62.80,64.30 64.30,62.80 64.30,59.60 62.86,59.73 61.69,60.12 60.77,60.78 60.12,61.69 59.73,62.86"/>
    </edge>
    <edge id=":juncMain_w2" function="walkingarea">
        <lane id=":juncMain_w2_0" index="0" allow="pedestrian" speed="1.00" length="3.83" width="4.00" shape="64.30,40.40 64.30,37.20 62.80,35.70 59.60,35.70 59.73,37.14 60.12,38.31 60.78,39.23 61.69,39.88 62.86,40.27"/>
    </edge>
    <edge id=":juncMain_w3" function="walkingarea">
        <lane id=":juncMain_w3_0" index="0" allow="pedestrian" speed="1.00" length="3.83" width="4.00" shape="40.40,35.70 37.20,35.70 35.70,37.20 35.70,40.40 37.14,40.27 38.31,39.88 39.23,39.22 39.88,38.31 40.27,37.14"/>
    </edge>
    <edge id=":juncN_0" function="internal">
        <lane id=":juncN_0_0" index="0" disallow="pedestrian" speed="3.65" length="4.67" shape="51.60,100.00 50.80,101.20 50.00,101.60 49.20,101.20 48.40,100.00"/>
    </edge>
    <edge id=":juncN_w0" function="walkingarea">
        <lane id=":juncN_w0_0" index="0" allow="pedestrian" speed="1.00" length="22.40" width="3.20" shape="40.40,100.00 37.20,100.00 62.80,100.00 59.60,100.00"/>
    </edge>
    <edge id=":juncS_0" function="internal">
        <lane id=":juncS_0_0" index="0" disallow="pedestrian" speed="3.65" length="4.67" shape="48.40,0.00 49.20,-1.20 50.00,-1.60 50.80,-1.20 51.60,0.00"/>
    </edge>
    <edge id=":juncS_w0" function="walkingarea">
        <lane id=":juncS_w0_0" index="0" allow="pedestrian" speed="1.00" length="22.40" width="3.20" shape="59.60,0.00 62.80,0.00 37.20,0.00 40.40,0.00"/>
    </edge>
    <edge id=":juncW_0" function="internal">
        <lane id=":juncW_0_0" index="0" disallow="pedestrian" speed="3.65" length="4.67" shape="0.00,51.60 -1.20,50.80 -1.60,50.00 -1.20,49.20 0.00,48.40"/>
    </edge>
    <edge id=":juncW_w0" function="walkingarea">
        <lane id=":juncW_w0_0" index="0" allow="pedestrian" speed="1.00" length="22.40" width="3.20" shape="0.00,40.40 0.00,37.20 0.00,62.80 0.00,59.60"/>
    </edge>

    <edge id="edgeE_I" from="juncMain" to="juncE" priority="46">
        <lane id="edgeE_I_0" index="0" allow="pedestrian" speed="11.00" length="35.70" shape="64.30,38.80 100.00,38.80"/>
        <lane id="edgeE_I_1" index="1" disallow="pedestrian" speed="11.00" length="35.70" shape="64.30,42.00 100.00,42.00"/>
        <lane id="edgeE_I_2" index="2" disallow="pedestrian" speed="11.00" length="35.70" shape="64.30,45.20 100.00,45.20"/>
        <lane id="edgeE_I_3" index="3" disallow="pedestrian" speed="11.00" length="35.70" shape="64.30,48.40 100.00,48.40"/>
    </edge>
    <edge id="edgeE_O" from="juncE" to="juncMain" priority="78">
        <lane id="edgeE_O_0" index="0" allow="pedestrian" speed="19.00" length="35.70" shape="100.00,61.20 64.30,61.20"/>
        <lane id="edgeE_O_1" index="1" disallow="pedestrian" speed="19.00" length="35.70" shape="100.00,58.00 64.30,58.00"/>
        <lane id="edgeE_O_2" index="2" disallow="pedestrian" speed="19.00" length="35.70" shape="100.00,54.80 64.30,54.80"/>
        <lane id="edgeE_O_3" index="3" disallow="pedestrian" speed="19.00" length="35.70" shape="100.00,51.60 64.30,51.60"/>
    </edge>
    <edge id="edgeN_I" from="juncMain" to="juncN" priority="46">
        <lane id="edgeN_I_0" index="0" allow="pedestrian" speed="11.00" length="35.70" shape="61.20,64.30 61.20,100.00"/>
        <lane id="edgeN_I_1" index="1" disallow="pedestrian" speed="11.00" length="35.70" shape="58.00,64.30 58.00,100.00"/>
        <lane id="edgeN_I_2" index="2" disallow="pedestrian" speed="11.00" length="35.70" shape="54.80,64.30 54.80,100.00"/>
        <lane id="edgeN_I_3" index="3" disallow="pedestrian" speed="11.00" length="35.70" shape="51.60,64.30 51.60,100.00"/>
    </edge>
    <edge id="edgeN_O" from="juncN" to="juncMain" priority="78">
        <lane id="edgeN_O_0" index="0" allow="pedestrian" speed="19.00" length="35.70" shape="38.80,100.00 38.80,64.30"/>
        <lane id="edgeN_O_1" index="1" disallow="pedestrian" speed="19.00" length="35.70" shape="42.00,100.00 42.00,64.30"/>
        <lane id="edgeN_O_2" index="2" disallow="pedestrian" speed="19.00" length="35.70" shape="45.20,100.00 45.20,64.30"/>
        <lane id="edgeN_O_3" index="3" disallow="pedestrian" speed="19.00" length="35.70" shape="48.40,100.00 48.40,64.30"/>
    </edge>
    <edge id="edgeS_I" from="juncMain" to="juncS" priority="46">
        <lane id="edgeS_I_0" index="0" allow="pedestrian" speed="11.00" length="35.70" shape="38.80,35.70 38.80,0.00"/>
        <lane id="edgeS_I_1" index="1" disallow="pedestrian" speed="11.00" length="35.70" shape="42.00,35.70 42.00,0.00"/>
        <lane id="edgeS_I_2" index="2" disallow="pedestrian" speed="11.00" length="35.70" shape="45.20,35.70 45.20,0.00"/>
        <lane id="edgeS_I_3" index="3" disallow="pedestrian" speed="11.00" length="35.70" shape="48.40,35.70 48.40,0.00"/>
    </edge>
    <edge id="edgeS_O" from="juncS" to="juncMain" priority="78">
        <lane id="edgeS_O_0" index="0" allow="pedestrian" speed="19.00" length="35.70" shape="61.20,0.00 61.20,35.70"/>
        <lane id="edgeS_O_1" index="1" disallow="pedestrian" speed="19.00" length="35.70" shape="58.00,0.00 58.00,35.70"/>
        <lane id="edgeS_O_2" index="2" disallow="pedestrian" speed="19.00" length="35.70" shape="54.80,0.00 54.80,35.70"/>
        <lane id="edgeS_O_3" index="3" disallow="pedestrian" speed="19.00" length="35.70" shape="51.60,0.00 51.60,35.70"/>
    </edge>
    <edge id="edgeW_I" from="juncMain" to="juncW" priority="46">
        <lane id="edgeW_I_0" index="0" allow="pedestrian" speed="11.00" length="35.70" shape="35.70,61.20 0.00,61.20"/>
        <lane id="edgeW_I_1" index="1" disallow="pedestrian" speed="11.00" length="35.70" shape="35.70,58.00 0.00,58.00"/>
        <lane id="edgeW_I_2" index="2" disallow="pedestrian" speed="11.00" length="35.70" shape="35.70,54.80 0.00,54.80"/>
        <lane id="edgeW_I_3" index="3" disallow="pedestrian" speed="11.00" length="35.70" shape="35.70,51.60 0.00,51.60"/>
    </edge>
    <edge id="edgeW_O" from="juncW" to="juncMain" priority="78">
        <lane id="edgeW_O_0" index="0" allow="pedestrian" speed="19.00" length="35.70" shape="0.00,38.80 35.70,38.80"/>
        <lane id="edgeW_O_1" index="1" disallow="pedestrian" speed="19.00" length="35.70" shape="0.00,42.00 35.70,42.00"/>
        <lane id="edgeW_O_2" index="2" disallow="pedestrian" speed="19.00" length="35.70" shape="0.00,45.20 35.70,45.20"/>
        <lane id="edgeW_O_3" index="3" disallow="pedestrian" speed="19.00" length="35.70" shape="0.00,48.40 35.70,48.40"/>
    </edge>

    <tlLogic id="juncMain" type="static" programID="0" offset="0">
        <phase duration="36" state="GggGGGgggrrrrrrrrggGGGgggrrrrrrrrrGrG"/>
        <phase duration="5"  state="GggGGGgggrrrrrrrrggGGGgggrrrrrrrrrrrr"/>
        <phase duration="4"  state="yyyyyyyyyrrrrrrrryyyyyyyyrrrrrrrrrrrr"/>
        <phase duration="36" state="rrrrrrrrrggGGGgggrrrrrrrrggGGGgggGrGr"/>
        <phase duration="5"  state="rrrrrrrrrggGGGgggrrrrrrrrggGGGgggrrrr"/>
        <phase duration="4"  state="rrrrrrrrryyyyyyyyrrrrrrrryyyyyyyyrrrr"/>
    </tlLogic>

    <junction id="juncE" type="priority" x="100.00" y="50.00" incLanes="edgeE_I_0 edgeE_I_1 edgeE_I_2 edgeE_I_3" intLanes=":juncE_0_0" shape="100.00,50.00 100.00,37.20 100.00,50.00">
        <request index="0" response="0" foes="0" cont="0"/>
    </junction>
    <junction id="juncMain" type="traffic_light" x="50.00" y="50.00" incLanes="edgeN_O_0 edgeN_O_1 edgeN_O_2 edgeN_O_3 edgeE_O_0 edgeE_O_1 edgeE_O_2 edgeE_O_3 edgeS_O_0 edgeS_O_1 edgeS_O_2 edgeS_O_3 edgeW_O_0 edgeW_O_1 edgeW_O_2 edgeW_O_3 :juncMain_w1_0 :juncMain_w2_0 :juncMain_w3_0 :juncMain_w0_0" intLanes=":juncMain_0_0 :juncMain_33_0 :juncMain_34_0 :juncMain_3_0 :juncMain_3_1 :juncMain_3_2 :juncMain_35_0 :juncMain_36_0 :juncMain_37_0 :juncMain_38_0 :juncMain_39_0 :juncMain_11_0 :juncMain_11_1 :juncMain_11_2 :juncMain_40_0 :juncMain_41_0 :juncMain_42_0 :juncMain_43_0 :juncMain_44_0 :juncMain_19_0 :juncMain_19_1 :juncMain_19_2 :juncMain_45_0 :juncMain_46_0 :juncMain_47_0 :juncMain_48_0 :juncMain_49_0 :juncMain_27_0 :juncMain_27_1 :juncMain_27_2 :juncMain_50_0 :juncMain_51_0 :juncMain_52_0 :juncMain_c0_0 :juncMain_c1_0 :juncMain_c2_0 :juncMain_c3_0" shape="37.20,64.30 62.80,64.30 62.97,63.47 63.17,63.18 63.47,62.97 63.84,62.84 64.30,62.80 64.30,37.20 63.47,37.03 63.18,36.83 62.97,36.53 62.84,36.16 62.80,35.70 37.20,35.70 37.03,36.53 36.83,36.82 36.53,37.03 36.16,37.16 35.70,37.20 35.70,62.80 36.53,62.97 36.82,63.17 37.03,63.47 37.16,63.84">
        <request index="0"  response="0101011000110000000000000000000000000" foes="0101011111110110000000011100000000110" cont="0"/>
        <request index="1"  response="1001000000000000000000000000000000001" foes="1001000000000110000000011100000000001" cont="1"/>
        <request index="2"  response="1001000000000000000000000000000000001" foes="1001000000000110000000011100000000001" cont="1"/>
        <request index="3"  response="0101011000110000000001100000000000000" foes="0101011111111110000001111100000000000" cont="0"/>
        <request index="4"  response="0101011000110000000001100000000000000" foes="0101011111111110000001111100000000000" cont="0"/>
        <request index="5"  response="0101011000110000000001100000000000000" foes="0101011111111110000001111100000000000" cont="0"/>
        <request index="6"  response="0011011000000001111101100000000000000" foes="0011011111000001111111111100000000000" cont="1"/>
        <request index="7"  response="0011011000000001111101100000000000000" foes="0011011111000001111111111100000000000" cont="1"/>
        <request index="8"  response="0001011000000001110000000000000000000" foes="0001011000000001110000000000000000000" cont="1"/>
        <request index="9"  response="0011000000000001110000000000000000000" foes="0011011000000001110000000000000000000" cont="1"/>
        <request index="10" response="0011000000000001110000000000000000000" foes="0011011000000001110000000000000000000" cont="1"/>
        <request index="11" response="1010000000000111110000000000011111111" foes="1010111000000111110000000000011111111" cont="0"/>
        <request index="12" response="1010000000000111110000000000011111111" foes="1010111000000111110000000000011111111" cont="0"/>
        <request index="13" response="1010000000000111110000000000011111111" foes="1010111000000111110000000000011111111" cont="0"/>
        <request index="14" response="0110000111110111110000000000011111000" foes="0110000111111111110000000000011111000" cont="1"/>
        <request index="15" response="0110000111110111110000000000011111000" foes="0110000111111111110000000000011111000" cont="1"/>
        <request index="16" response="0010000111000000000000000000011000000" foes="0010000111000000000000000000011000000" cont="1"/>
        <request index="17" response="0110000000000000000000000000000000000" foes="0110000111000000000000000000011000000" cont="1"/>
        <request index="18" response="0110000000000000000000000000000000000" foes="0110000111000000000000000000011000000" cont="1"/>
        <request index="19" response="0101011000000000000001100011000000000" foes="0101011111000000000001111111111000000" cont="0"/>
        <request index="20" response="0101011000000000000001100011000000000" foes="0101011111000000000001111111111000000" cont="0"/>
        <request index="21" response="0101011000000000000001100011000000000" foes="0101011111000000000001111111111000000" cont="0"/>
        <request index="22" response="1100011000000000000001100000000111111" foes="1100111111000000000001111100000111111" cont="1"/>
        <request index="23" response="1100011000000000000001100000000111111" foes="1100111111000000000001111100000111111" cont="1"/>
        <request index="24" response="0100000000000000000001100000000111000" foes="0100000000000000000001100000000111000" cont="1"/>
        <request index="25" response="1100000000000000000000000000000111001" foes="1100000000000000000001100000000111001" cont="1"/>
        <request index="26" response="1100000000000000000000000000000111001" foes="1100000000000000000001100000000111001" cont="1"/>
        <request index="27" response="1010000000000111111100000000011111001" foes="1010000000000111111111100000011111001" cont="0"/>
        <request index="28" response="1010000000000111111100000000011111001" foes="1010000000000111111111100000011111001" cont="0"/>
        <request index="29" response="1010000000000111111100000000011111001" foes="1010000000000111111111100000011111001" cont="0"/>
        <request index="30" response="1001000000000111110000011111011111001" foes="1001000000000111110000011111111111001" cont="1"/>
        <request index="31" response="1001000000000111110000011111011111001" foes="1001000000000111110000011111111111001" cont="1"/>
        <request index="32" response="1000000000000110000000011100000000000" foes="1000000000000110000000011100000000000" cont="1"/>
        <request index="33" response="0000000000000000000000000000000000000" foes="0000011000000001110000000011111111111" cont="0"/>
        <request index="34" response="0000000000000000000000000000000000000" foes="0000000111000000001111111111011000000" cont="0"/>
        <request index="35" response="0000000000000000000000000000000000000" foes="0000000000111111111101100000000111001" cont="0"/>
        <request index="36" response="0000000000000000000000000000000000000" foes="0000111111110110000000011100000000110" cont="0"/>
    </junction>
    <junction id="juncN" type="priority" x="50.00" y="100.00" incLanes="edgeN_I_0 edgeN_I_1 edgeN_I_2 edgeN_I_3" intLanes=":juncN_0_0" shape="50.00,100.00 62.80,100.00 50.00,100.00">
        <request index="0" response="0" foes="0" cont="0"/>
    </junction>
    <junction id="juncS" type="priority" x="50.00" y="0.00" incLanes="edgeS_I_0 edgeS_I_1 edgeS_I_2 edgeS_I_3" intLanes=":juncS_0_0" shape="50.00,0.00 37.20,0.00 50.00,0.00">
        <request index="0" response="0" foes="0" cont="0"/>
    </junction>
    <junction id="juncW" type="priority" x="0.00" y="50.00" incLanes="edgeW_I_0 edgeW_I_1 edgeW_I_2 edgeW_I_3" intLanes=":juncW_0_0" shape="0.00,50.00 0.00,62.80 0.00,50.00">
        <request index="0" response="0" foes="0" cont="0"/>
    </junction>

    <junction id=":juncMain_33_0" type="internal" x="40.42" y="59.58" incLanes=":juncMain_1_0 edgeN_O_0" intLanes=":juncMain_0_0 :juncMain_11_0 :juncMain_11_1 :juncMain_11_2 :juncMain_22_0 :juncMain_22_1 :juncMain_32_0 :juncMain_c0_0 :juncMain_c3_0"/>
    <junction id=":juncMain_34_0" type="internal" x="40.42" y="57.17" incLanes=":juncMain_1_1 edgeN_O_0" intLanes=":juncMain_0_0 :juncMain_11_0 :juncMain_11_1 :juncMain_11_2 :juncMain_22_0 :juncMain_22_1 :juncMain_32_0 :juncMain_c0_0 :juncMain_c3_0"/>
    <junction id=":juncMain_35_0" type="internal" x="50.00" y="54.73" incLanes=":juncMain_6_0 edgeS_O_1 edgeS_O_2 edgeS_O_3" intLanes=":juncMain_11_0 :juncMain_11_1 :juncMain_11_2 :juncMain_14_0 :juncMain_14_1 :juncMain_16_0 :juncMain_17_0 :juncMain_17_1 :juncMain_19_0 :juncMain_19_1 :juncMain_19_2 :juncMain_27_0 :juncMain_27_1 :juncMain_27_2 :juncMain_30_0 :juncMain_30_1 :juncMain_c0_0 :juncMain_c1_0"/>
    <junction id=":juncMain_36_0" type="internal" x="50.00" y="56.33" incLanes=":juncMain_6_1 edgeS_O_1 edgeS_O_2 edgeS_O_3" intLanes=":juncMain_11_0 :juncMain_11_1 :juncMain_11_2 :juncMain_14_0 :juncMain_14_1 :juncMain_16_0 :juncMain_17_0 :juncMain_17_1 :juncMain_19_0 :juncMain_19_1 :juncMain_19_2 :juncMain_27_0 :juncMain_27_1 :juncMain_27_2 :juncMain_30_0 :juncMain_30_1 :juncMain_c0_0 :juncMain_c1_0"/>
    <junction id=":juncMain_37_0" type="internal" x="50.00" y="62.70" incLanes=":juncMain_8_0 edgeE_O_1 edgeS_O_1 edgeS_O_2 edgeS_O_3 edgeW_O_3" intLanes=":juncMain_9_0 :juncMain_9_1 :juncMain_19_0 :juncMain_19_1 :juncMain_19_2 :juncMain_30_0 :juncMain_30_1 :juncMain_c0_0 :juncMain_c0_0"/>
    <junction id=":juncMain_38_0" type="internal" x="59.14" y="60.30" incLanes=":juncMain_9_0" intLanes=":juncMain_8_0 :juncMain_19_0 :juncMain_19_1 :juncMain_19_2 :juncMain_30_0 :juncMain_30_1 :juncMain_c0_0 :juncMain_c1_0"/>
    <junction id=":juncMain_39_0" type="internal" x="56.52" y="60.30" incLanes=":juncMain_9_1" intLanes=":juncMain_8_0 :juncMain_19_0 :juncMain_19_1 :juncMain_19_2 :juncMain_30_0 :juncMain_30_1 :juncMain_c0_0 :juncMain_c1_0"/>
    <junction id=":juncMain_40_0" type="internal" x="54.73" y="50.00" incLanes=":juncMain_14_0 edgeW_O_1 edgeW_O_2 edgeW_O_3" intLanes=":juncMain_0_0 :juncMain_3_0 :juncMain_3_1 :juncMain_3_2 :juncMain_6_0 :juncMain_6_1 :juncMain_19_0 :juncMain_19_1 :juncMain_19_2 :juncMain_22_0 :juncMain_22_1 :juncMain_24_0 :juncMain_25_0 :juncMain_25_1 :juncMain_27_0 :juncMain_27_1 :juncMain_27_2 :juncMain_c1_0 :juncMain_c2_0"/>
    <junction id=":juncMain_41_0" type="internal" x="56.33" y="50.00" incLanes=":juncMain_14_1 edgeW_O_1 edgeW_O_2 edgeW_O_3" intLanes=":juncMain_0_0 :juncMain_3_0 :juncMain_3_1 :juncMain_3_2 :juncMain_6_0 :juncMain_6_1 :juncMain_19_0 :juncMain_19_1 :juncMain_19_2 :juncMain_22_0 :juncMain_22_1 :juncMain_24_0 :juncMain_25_0 :juncMain_25_1 :juncMain_27_0 :juncMain_27_1 :juncMain_27_2 :juncMain_c1_0 :juncMain_c2_0"/>
    <junction id=":juncMain_42_0" type="internal" x="62.70" y="50.00" incLanes=":juncMain_16_0 edgeN_O_3 edgeS_O_1 edgeW_O_1 edgeW_O_2 edgeW_O_3" intLanes=":juncMain_6_0 :juncMain_6_1 :juncMain_17_0 :juncMain_17_1 :juncMain_27_0 :juncMain_27_1 :juncMain_27_2 :juncMain_c1_0 :juncMain_c1_0"/>