<?xml version="1.0" encoding="UTF-8"?>

<!-- generated on 2021-10-31 20:43:28 by Eclipse SUMO netconvert Version 1.10.0
<configuration xmlns:xsi="http://www.w3.org/2001/XMLSchema-instance" xsi:noNamespaceSchemaLocation="http://sumo.dlr.de/xsd/netconvertConfiguration.xsd">

    <input>
        <node-files value="data/cross.nod.xml"/>
        <edge-files value="data/cross.edg.xml"/>
        <connection-files value="data/cross.con.xml"/>
    </input>

    <output>
        <output-file value="data/cross.net.xml"/>
    </output>

    <junctions>
        <no-turnarounds.except-turnlane value="true"/>
    </junctions>

    <report>
        <aggregate-warnings value="5"/>
    </report>

</configuration>
-->

<net version="1.9" junctionCornerDetail="5" limitTurnSpeed="5.50" xmlns:xsi="http://www.w3.org/2001/XMLSchema-instance" xsi:noNamespaceSchemaLocation="http://sumo.dlr.de/xsd/net_file.xsd">

    <location netOffset="700.00,600.00" convBoundary="0.00,0.00,1100.00,1400.00" origBoundary="-700.00,-600.00,400.00,800.00" projParameter="!"/>

    <edge id=":juncE_0" function="internal">
        <lane id=":juncE_0_0" index="0" disallow="pedestrian" speed="3.65" length="4.67" shape="1100.00,598.40 1101.20,599.20 1101.60,600.00 1101.20,600.80 1100.00,601.60"/>
    </edge>
    <edge id=":juncE_w0" function="walkingarea">
        <lane id=":juncE_w0_0" index="0" allow="pedestrian" speed="1.00" length="16.00" width="3.20" shape="1100.00,606.40 1100.00,609.60 1100.00,590.40 1100.00,593.60"/>
    </edge>
    <edge id=":juncMain_0" function="internal">
        <lane id=":juncMain_0_0" index="0" disallow="pedestrian" speed="6.86" length="5.34" shape="692.00,611.10 691.61,608.34 690.42,606.38 690.20,606.24"/>
        <lane id=":juncMain_0_1" index="1" disallow="pedestrian" speed="7.64" length="7.67" shape="692.00,611.10 691.61,606.94 690.42,603.98 690.20,603.77"/>
        <lane id=":juncMain_0_2" index="2" disallow="pedestrian" speed="7.64" length="8.30" shape="695.20,611.10 694.61,608.34 692.83,606.38 690.20,605.33"/>
        <lane id=":juncMain_0_3" index="3" disallow="pedestrian" speed="8.29" length="10.72" shape="695.20,611.10 694.61,606.94 692.83,603.98 690.20,602.40"/>
    </edge>
    <edge id=":juncMain_4" function="internal">
        <lane id=":juncMain_4_0" index="0" disallow="pedestrian" speed="22.42" length="22.20" shape="695.20,611.10 695.20,588.90"/>
    </edge>
    <edge id=":juncMain_5" function="internal">
        <lane id=":juncMain_5_0" index="0" disallow="pedestrian" speed="10.59" length="13.78" shape="698.40,611.10 699.39,604.14 702.38,599.17 703.20,598.68"/>
        <lane id=":juncMain_5_1" index="1" disallow="pedestrian" speed="10.08" length="11.52" shape="698.40,611.10 699.39,605.54 702.38,601.58 703.20,601.18"/>
    </edge>
    <edge id=":juncMain_7" function="internal">
        <lane id=":juncMain_7_0" index="0" disallow="pedestrian" speed="3.65" length="2.34" shape="698.40,611.10 699.20,609.90 700.00,609.50"/>
    </edge>
    <edge id=":juncMain_34" function="internal">
        <lane id=":juncMain_34_0" index="0" disallow="pedestrian" speed="6.86" length="4.82" shape="690.20,606.24 688.46,605.19 685.70,604.80"/>
    </edge>
    <edge id=":juncMain_35" function="internal">
        <lane id=":juncMain_35_0" index="0" disallow="pedestrian" speed="7.64" length="5.17" shape="690.20,603.77 688.46,602.19 685.70,601.60"/>
    </edge>
    <edge id=":juncMain_36" function="internal">
        <lane id=":juncMain_36_0" index="0" disallow="pedestrian" speed="7.64" length="4.54" shape="690.20,605.33 689.86,605.19 685.70,604.80"/>
    </edge>
    <edge id=":juncMain_37" function="internal">
        <lane id=":juncMain_37_0" index="0" disallow="pedestrian" speed="8.29" length="4.60" shape="690.20,602.40 689.86,602.19 685.70,601.60"/>
    </edge>
    <edge id=":juncMain_38" function="internal">
        <lane id=":juncMain_38_0" index="0" disallow="pedestrian" speed="10.59" length="11.86" shape="703.20,598.68 707.34,596.19 714.30,595.20"/>
    </edge>
    <edge id=":juncMain_39" function="internal">
        <lane id=":juncMain_39_0" index="0" disallow="pedestrian" speed="10.08" length="11.60" shape="703.20,601.18 707.34,599.19 714.30,598.40"/>
    </edge>
    <edge id=":juncMain_40" function="internal">
        <lane id=":juncMain_40_0" index="0" disallow="pedestrian" speed="3.65" length="2.34" shape="700.00,609.50 700.80,609.90 701.60,611.10"/>
    </edge>
    <edge id=":juncMain_8" function="internal">
        <lane id=":juncMain_8_0" index="0" disallow="pedestrian" speed="6.86" length="5.34" shape="714.30,604.80 711.54,605.19 709.58,606.38 709.44,606.60"/>
        <lane id=":juncMain_8_1" index="1" disallow="pedestrian" speed="7.64" length="7.67" shape="714.30,604.80 710.14,605.19 707.17,606.38 706.97,606.60"/>
    </edge>
    <edge id=":juncMain_10" function="internal">
        <lane id=":juncMain_10_0" index="0" disallow="pedestrian" speed="19.43" length="28.60" shape="714.30,604.80 685.70,604.80"/>
    </edge>
    <edge id=":juncMain_11" function="internal">
        <lane id=":juncMain_11_0" index="0" disallow="pedestrian" speed="7.64" length="4.32" shape="714.30,601.60 711.54,602.19 710.43,603.20"/>
        <lane id=":juncMain_11_1" index="1" disallow="pedestrian" speed="8.29" length="6.15" shape="714.30,601.60 710.14,602.19 708.47,603.20"/>
    </edge>
    <edge id=":juncMain_13" function="internal">
        <lane id=":juncMain_13_0" index="0" disallow="pedestrian" speed="19.43" length="28.60" shape="714.30,601.60 685.70,601.60"/>
    </edge>
    <edge id=":juncMain_14" function="internal">
        <lane id=":juncMain_14_0" index="0" disallow="pedestrian" speed="10.63" length="10.57" shape="714.30,601.60 705.94,600.81 703.92,600.00"/>
        <lane id=":juncMain_14_1" index="1" disallow="pedestrian" speed="10.08" length="8.87" shape="714.30,601.60 707.34,600.81 705.66,600.00"/>
    </edge>
    <edge id=":juncMain_16" function="internal">
        <lane id=":juncMain_16_0" index="0" disallow="pedestrian" speed="3.65" length="2.34" shape="714.30,601.60 713.10,600.80 712.70,600.00"/>
    </edge>
    <edge id=":juncMain_41" function="internal">
        <lane id=":juncMain_41_0" index="0" disallow="pedestrian" speed="6.86" length="4.82" shape="709.44,606.60 708.39,608.34 708.00,611.10"/>
    </edge>
    <edge id=":juncMain_42" function="internal">
        <lane id=":juncMain_42_0" index="0" disallow="pedestrian" speed="7.64" length="5.17" shape="706.97,606.60 705.39,608.34 704.80,611.10"/>
    </edge>
    <edge id=":juncMain_43" function="internal">
        <lane id=":juncMain_43_0" index="0" disallow="pedestrian" speed="7.64" length="8.53" shape="710.43,603.20 709.58,603.98 708.39,606.94 708.00,611.10"/>
    </edge>
    <edge id=":juncMain_44" function="internal">
        <lane id=":juncMain_44_0" index="0" disallow="pedestrian" speed="8.29" length="9.17" shape="708.47,603.20 707.17,603.98 705.39,606.94 704.80,611.10"/>
    </edge>
    <edge id=":juncMain_45" function="internal">
        <lane id=":juncMain_45_0" index="0" disallow="pedestrian" speed="10.63" length="15.28" shape="703.92,600.00 699.98,598.43 696.39,594.46 695.20,588.90"/>
    </edge>
    <edge id=":juncMain_46" function="internal">
        <lane id=":juncMain_46_0" index="0" disallow="pedestrian" speed="10.08" length="14.25" shape="705.66,600.00 702.38,598.43 699.39,594.46 698.40,588.90"/>
    </edge>
    <edge id=":juncMain_47" function="internal">
        <lane id=":juncMain_47_0" index="0" disallow="pedestrian" speed="3.65" length="2.34" shape="712.70,600.00 713.10,599.20 714.30,598.40"/>
    </edge>
    <edge id=":juncMain_17" function="internal">
        <lane id=":juncMain_17_0" index="0" disallow="pedestrian" speed="6.86" length="5.34" shape="708.00,588.90 708.39,591.66 709.58,593.62 709.80,593.76"/>
        <lane id=":juncMain_17_1" index="1" disallow="pedestrian" speed="7.64" length="7.67" shape="708.00,588.90 708.39,593.06 709.58,596.02 709.80,596.23"/>
        <lane id=":juncMain_17_2" index="2" disallow="pedestrian" speed="7.64" length="8.30" shape="704.80,588.90 705.39,591.66 707.17,593.62 709.80,594.67"/>
        <lane id=":juncMain_17_3" index="3" disallow="pedestrian" speed="8.29" length="10.72" shape="704.80,588.90 705.39,593.06 707.17,596.02 709.80,597.60"/>
    </edge>
    <edge id=":juncMain_21" function="internal">
        <lane id=":juncMain_21_0" index="0" disallow="pedestrian" speed="22.42" length="22.20" shape="704.80,588.90 704.80,611.10"/>
    </edge>
    <edge id=":juncMain_22" function="internal">
        <lane id=":juncMain_22_0" index="0" disallow="pedestrian" speed="10.59" length="13.78" shape="701.60,588.90 700.61,595.86 697.62,600.83 696.80,601.32"/>
        <lane id=":juncMain_22_1" index="1" disallow="pedestrian" speed="10.08" length="11.52" shape="701.60,588.90 700.61,594.46 697.62,598.42 696.80,598.82"/>
    </edge>
    <edge id=":juncMain_24" function="internal">
        <lane id=":juncMain_24_0" index="0" disallow="pedestrian" speed="3.65" length="2.34" shape="701.60,588.90 700.80,590.10 700.00,590.50"/>
    </edge>
    <edge id=":juncMain_48" function="internal">
        <lane id=":juncMain_48_0" index="0" disallow="pedestrian" speed="6.86" length="4.82" shape="709.80,593.76 711.54,594.81 714.30,595.20"/>
    </edge>
    <edge id=":juncMain_49" function="internal">
        <lane id=":juncMain_49_0" index="0" disallow="pedestrian" speed="7.64" length="5.17" shape="709.80,596.23 711.54,597.81 714.30,598.40"/>
    </edge>
    <edge id=":juncMain_50" function="internal">
        <lane id=":juncMain_50_0" index="0" disallow="pedestrian" speed="7.64" length="4.54" shape="709.80,594.67 710.14,594.81 714.30,595.20"/>
    </edge>
    <edge id=":juncMain_51" function="internal">
        <lane id=":juncMain_51_0" index="0" disallow="pedestrian" speed="8.29" length="4.60" shape="709.80,597.60 710.14,597.81 714.30,598.40"/>
    </edge>
    <edge id=":juncMain_52" function="internal">
        <lane id=":juncMain_52_0" index="0" disallow="pedestrian" speed="10.59" length="11.86" shape="696.80,601.32 692.66,603.81 685.70,604.80"/>
    </edge>
    <edge id=":juncMain_53" function="internal">
        <lane id=":juncMain_53_0" index="0" disallow="pedestrian" speed="10.08" length="11.60" shape="696.80,598.82 692.66,600.81 685.70,601.60"/>
    </edge>
    <edge id=":juncMain_54" function="internal">
        <lane id=":juncMain_54_0" index="0" disallow="pedestrian" speed="3.65" length="2.34" shape="700.00,590.50 699.20,590.10 698.40,588.90"/>
    </edge>
    <edge id=":juncMain_25" function="internal">
        <lane id=":juncMain_25_0" index="0" disallow="pedestrian" speed="6.86" length="5.34" shape="685.70,595.20 688.46,594.81 690.42,593.62 690.56,593.40"/>
        <lane id=":juncMain_25_1" index="1" disallow="pedestrian" speed="7.64" length="7.67" shape="685.70,595.20 689.86,594.81 692.83,593.62 693.03,593.40"/>
    </edge>
    <edge id=":juncMain_27" function="internal">
        <lane id=":juncMain_27_0" index="0" disallow="pedestrian" speed="19.43" length="28.60" shape="685.70,595.20 714.30,595.20"/>
    </edge>
    <edge id=":juncMain_28" function="internal">
        <lane id=":juncMain_28_0" index="0" disallow="pedestrian" speed="7.64" length="4.32" shape="685.70,598.40 688.46,597.81 689.57,596.80"/>
        <lane id=":juncMain_28_1" index="1" disallow="pedestrian" speed="8.29" length="6.15" shape="685.70,598.40 689.86,597.81 691.53,596.80"/>
    </edge>
    <edge id=":juncMain_30" function="internal">
        <lane id=":juncMain_30_0" index="0" disallow="pedestrian" speed="19.43" length="28.60" shape="685.70,598.40 714.30,598.40"/>
    </edge>
    <edge id=":juncMain_31" function="internal">
        <lane id=":juncMain_31_0" index="0" disallow="pedestrian" speed="10.63" length="10.57" shape="685.70,598.40 694.06,599.19 696.08,600.00"/>
        <lane id=":juncMain_31_1" index="1" disallow="pedestrian" speed="10.08" length="8.87" shape="685.70,598.40 692.66,599.19 694.34,600.00"/>
    </edge>
    <edge id=":juncMain_33" function="internal">
        <lane id=":juncMain_33_0" index="0" disallow="pedestrian" speed="3.65" length="2.34" shape="685.70,598.40 686.90,599.20 687.30,600.00"/>
    </edge>
    <edge id=":juncMain_55" function="internal">
        <lane id=":juncMain_55_0" index="0" disallow="pedestrian" speed="6.86" length="4.82" shape="690.56,593.40 691.61,591.66 692.00,588.90"/>
    </edge>
    <edge id=":juncMain_56" function="internal">
        <lane id=":juncMain_56_0" index="0" disallow="pedestrian" speed="7.64" length="5.17" shape="693.03,593.40 694.61,591.66 695.20,588.90"/>
    </edge>
    <edge id=":juncMain_57" function="internal">
        <lane id=":juncMain_57_0" index="0" disallow="pedestrian" speed="7.64" length="8.53" shape="689.57,596.80 690.42,596.02 691.61,593.06 692.00,588.90"/>
    </edge>
    <edge id=":juncMain_58" function="internal">
        <lane id=":juncMain_58_0" index="0" disallow="pedestrian" speed="8.29" length="9.17" shape="691.53,596.80 692.83,596.02 694.61,593.06 695.20,588.90"/>
    </edge>
    <edge id=":juncMain_59" function="internal">
        <lane id=":juncMain_59_0" index="0" disallow="pedestrian" speed="10.63" length="15.28" shape="696.08,600.00 700.02,601.57 703.61,605.54 704.80,611.10"/>
    </edge>
    <edge id=":juncMain_60" function="internal">
        <lane id=":juncMain_60_0" index="0" disallow="pedestrian" speed="10.08" length="14.25" shape="694.34,600.00 697.62,601.57 700.61,605.54 701.60,611.10"/>
    </edge>
    <edge id=":juncMain_61" function="internal">
        <lane id=":juncMain_61_0" index="0" disallow="pedestrian" speed="3.65" length="2.34" shape="687.30,600.00 686.90,600.80 685.70,601.60"/>
    </edge>
    <edge id=":juncMain_c0" function="crossing" crossingEdges="edgeN_I edgeN_O">
        <lane id=":juncMain_c0_0" index="0" allow="pedestrian" speed="1.00" length="19.20" width="4.50" shape="709.60,608.85 690.40,608.85"/>
    </edge>
    <edge id=":juncMain_c1" function="crossing" crossingEdges="edgeE_I edgeE_O">
        <lane id=":juncMain_c1_0" index="0" allow="pedestrian" speed="1.00" length="12.80" width="4.50" shape="712.05,593.60 712.05,606.40"/>
    </edge>
    <edge id=":juncMain_c2" function="crossing" crossingEdges="edgeS_I edgeS_O">
        <lane id=":juncMain_c2_0" index="0" allow="pedestrian" speed="1.00" length="19.20" width="4.50" shape="690.40,591.15 709.60,591.15"/>
    </edge>
    <edge id=":juncMain_c3" function="crossing" crossingEdges="edgeW_I edgeW_O">
        <lane id=":juncMain_c3_0" index="0" allow="pedestrian" speed="1.00" length="12.80" width="4.50" shape="687.95,606.40 687.95,593.60"/>
    </edge>
    <edge id=":juncMain_w0" function="walkingarea">
        <lane id=":juncMain_w0_0" index="0" allow="pedestrian" speed="1.00" length="3.82" width="4.50" shape="685.70,606.40 685.70,609.60 687.20,611.10 690.40,611.10 690.27,609.66 689.88,608.49 689.22,607.58 688.31,606.92 687.14,606.53"/>
    </edge>
    <edge id=":juncMain_w1" function="walkingarea">
        <lane id=":juncMain_w1_0" index="0" allow="pedestrian" speed="1.00" length="3.82" width="4.50" shape="709.60,611.10 712.80,611.10 714.30,609.60 714.30,606.40 712.86,606.53 711.69,606.92 710.77,607.57 710.12,608.49 709.73,609.66"/>
    </edge>
    <edge id=":juncMain_w2" function="walkingarea">
        <lane id=":juncMain_w2_0" index="0" allow="pedestrian" speed="1.00" length="3.82" width="4.50" shape="714.30,593.60 714.30,590.40 712.80,588.90 709.60,588.90 709.73,590.34 710.12,591.51 710.78,592.42 711.69,593.08 712.86,593.47"/>
    </edge>
    <edge id=":juncMain_w3" function="walkingarea">
        <lane id=":juncMain_w3_0" index="0" allow="pedestrian" speed="1.00" length="3.82" width="4.50" shape="690.40,588.90 687.20,588.90 685.70,590.40 685.70,593.60 687.14,593.47 688.31,593.08 689.23,592.43 689.88,591.51 690.27,590.34"/>
    </edge>
    <edge id=":juncN_0" function="internal">
        <lane id=":juncN_0_0" index="0" disallow="pedestrian" speed="3.65" length="4.67" shape="701.60,1400.00 700.80,1401.20 700.00,1401.60 699.20,1401.20 698.40,1400.00"/>
    </edge>
    <edge id=":juncN_w0" function="walkingarea">
        <lane id=":juncN_w0_0" index="0" allow="pedestrian" speed="1.00" length="22.40" width="3.20" shape="690.40,1400.00 687.20,1400.00 712.80,1400.00 709.60,1400.00"/>
    </edge>
    <edge id=":juncS_0" function="internal">
        <lane id=":juncS_0_0" index="0" disallow="pedestrian" speed="3.65" length="4.67" shape="698.40,0.00 699.20,-1.20 700.00,-1.60 700.80,-1.20 701.60,0.00"/>
    </edge>
    <edge id=":juncS_w0" function="walkingarea">
        <lane id=":juncS_w0_0" index="0" allow="pedestrian" speed="1.00" length="22.40" width="3.20" shape="709.60,0.00 712.80,0.00 687.20,0.00 690.40,0.00"/>
    </edge>
    <edge id=":juncW_0" function="internal">
        <lane id=":juncW_0_0" index="0" disallow="pedestrian" speed="3.65" length="4.67" shape="0.00,601.60 -1.20,600.80 -1.60,600.00 -1.20,599.20 0.00,598.40"/>
    </edge>
    <edge id=":juncW_w0" function="walkingarea">
        <lane id=":juncW_w0_0" index="0" allow="pedestrian" speed="1.00" length="16.00" width="3.20" shape="0.00,593.60 0.00,590.40 0.00,609.60 0.00,606.40"/>
    </edge>

    <edge id="edgeE_I" from="juncMain" to="juncE" priority="46">
        <lane id="edgeE_I_0" index="0" allow="pedestrian" speed="22.02" length="385.70" shape="714.30,592.00 1100.00,592.00"/>
        <lane id="edgeE_I_1" index="1" disallow="pedestrian" speed="22.02" length="385.70" shape="714.30,595.20 1100.00,595.20"/>
        <lane id="edgeE_I_2" index="2" disallow="pedestrian" speed="22.02" length="385.70" shape="714.30,598.40 1100.00,598.40"/>
    </edge>
    <edge id="edgeE_O" from="juncE" to="juncMain" priority="78">
        <lane id="edgeE_O_0" index="0" allow="pedestrian" speed="16.83" length="385.70" shape="1100.00,608.00 714.30,608.00"/>
        <lane id="edgeE_O_1" index="1" disallow="pedestrian" speed="16.83" length="385.70" shape="1100.00,604.80 714.30,604.80"/>
        <lane id="edgeE_O_2" index="2" disallow="pedestrian" speed="16.83" length="385.70" shape="1100.00,601.60 714.30,601.60"/>
    </edge>
    <edge id="edgeN_I" from="juncMain" to="juncN" priority="46">
        <lane id="edgeN_I_0" index="0" allow="pedestrian" speed="21.28" length="788.90" shape="711.20,611.10 711.20,1400.00"/>
        <lane id="edgeN_I_1" index="1" disallow="pedestrian" speed="21.28" length="788.90" shape="708.00,611.10 708.00,1400.00"/>
        <lane id="edgeN_I_2" index="2" disallow="pedestrian" speed="21.28" length="788.90" shape="704.80,611.10 704.80,1400.00"/>
        <lane id="edgeN_I_3" index="3" disallow="pedestrian" speed="21.28" length="788.90" shape="701.60,611.10 701.60,1400.00"/>
    </edge>
    <edge id="edgeN_O" from="juncN" to="juncMain" priority="78">
        <lane id="edgeN_O_0" index="0" allow="pedestrian" speed="23.57" length="788.90" shape="688.80,1400.00 688.80,611.10"/>
        <lane id="edgeN_O_1" index="1" disallow="pedestrian" speed="23.57" length="788.90" shape="692.00,1400.00 692.00,611.10"/>
        <lane id="edgeN_O_2" index="2" disallow="pedestrian" speed="23.57" length="788.90" shape="695.20,1400.00 695.20,611.10"/>
        <lane id="edgeN_O_3" index="3" disallow="pedestrian" speed="23.57" length="788.90" shape="698.40,1400.00 698.40,611.10"/>
    </edge>
    <edge id="edgeS_I" from="juncMain" to="juncS" priority="46">
        <lane id="edgeS_I_0" index="0" allow="pedestrian" speed="21.28" length="588.90" shape="688.80,588.90 688.80,0.00"/>
        <lane id="edgeS_I_1" index="1" disallow="pedestrian" speed="21.28" length="588.90" shape="692.00,588.90 692.00,0.00"/>
        <lane id="edgeS_I_2" index="2" disallow="pedestrian" speed="21.28" length="588.90" shape="695.20,588.90 695.20,0.00"/>
        <lane id="edgeS_I_3" index="3" disallow="pedestrian" speed="21.28" length="588.90" shape="698.40,588.90 698.40,0.00"/>
    </edge>
    <edge id="edgeS_O" from="juncS" to="juncMain" priority="78">
        <lane id="edgeS_O_0" index="0" allow="pedestrian" speed="23.57" length="588.90" shape="711.20,0.00 711.20,588.90"/>
        <lane id="edgeS_O_1" index="1" disallow="pedestrian" speed="23.57" length="588.90" shape="708.00,0.00 708.00,588.90"/>
        <lane id="edgeS_O_2" index="2" disallow="pedestrian" speed="23.57" length="588.90" shape="704.80,0.00 704.80,588.90"/>
        <lane id="edgeS_O_3" index="3" disallow="pedestrian" speed="23.57" length="588.90" shape="701.60,0.00 701.60,588.90"/>
    </edge>
    <edge id="edgeW_I" from="juncMain" to="juncW" priority="46">
        <lane id="edgeW_I_0" index="0" allow="pedestrian" speed="22.02" length="685.70" shape="685.70,608.00 0.00,608.00"/>
        <lane id="edgeW_I_1" index="1" disallow="pedestrian" speed="22.02" length="685.70" shape="685.70,604.80 0.00,604.80"/>
        <lane id="edgeW_I_2" index="2" disallow="pedestrian" speed="22.02" length="685.70" shape="685.70,601.60 0.00,601.60"/>
    </edge>
    <edge id="edgeW_O" from="juncW" to="juncMain" priority="78">
        <lane id="edgeW_O_0" index="0" allow="pedestrian" speed="16.83" length="685.70" shape="0.00,592.00 685.70,592.00"/>
        <lane id="edgeW_O_1" index="1" disallow="pedestrian" speed="16.83" length="685.70" shape="0.00,595.20 685.70,595.20"/>
        <lane id="edgeW_O_2" index="2" disallow="pedestrian" speed="16.83" length="685.70" shape="0.00,598.40 685.70,598.40"/>
    </edge>

    <tlLogic id="juncMain" type="static" programID="0" offset="0">
        <phase duration="30" state="ggggGrrrrrrrrrrrrggggGrrrrrrrrrrrrrGrG"/>
        <phase duration="5"  state="ggggGrrrrrrrrrrrrggggGrrrrrrrrrrrrrrrr"/>
        <phase duration="5"  state="yyyyyrrrrrrrrrrrryyyyyrrrrrrrrrrrrrrrr"/>
        <phase duration="6"  state="rrrrrGGGrrrrrrrrrrrrrrGGGrrrrrrrrrrrrr"/>
        <phase duration="5"  state="rrrrryyyrrrrrrrrrrrrrryyyrrrrrrrrrrrrr"/>
        <phase duration="29" state="rrrrrrrrggGggGgggrrrrrrrrggGggGgggGrGr"/>
        <phase duration="5"  state="rrrrrrrrggGggGgggrrrrrrrrggGggGgggrrrr"/>
        <phase duration="5"  state="rrrrrrrryyyyyyyyyrrrrrrrryyyyyyyyyrrrr"/>
    </tlLogic>

    <junction id="juncE" type="priority" x="1100.00" y="600.00" incLanes="edgeE_I_0 edgeE_I_1 edgeE_I_2" intLanes=":juncE_0_0" shape="1100.00,600.00 1100.00,590.40 1100.00,600.00">
        <request index="0" response="0" foes="0" cont="0"/>
    </junction>
    <junction id="juncMain" type="traffic_light" x="700.00" y="600.00" incLanes="edgeN_O_0 edgeN_O_1 edgeN_O_2 edgeN_O_3 edgeE_O_0 edgeE_O_1 edgeE_O_2 edgeS_O_0 edgeS_O_1 edgeS_O_2 edgeS_O_3 edgeW_O_0 edgeW_O_1 edgeW_O_2 :juncMain_w1_0 :juncMain_w2_0 :juncMain_w3_0 :juncMain_w0_0" intLanes=":juncMain_34_0 :juncMain_35_0 :juncMain_36_0 :juncMain_37_0 :juncMain_4_0 :juncMain_38_0 :juncMain_39_0 :juncMain_40_0 :juncMain_41_0 :juncMain_42_0 :juncMain_10_0 :juncMain_43_0 :juncMain_44_0 :juncMain_13_0 :juncMain_45_0 :juncMain_46_0 :juncMain_47_0 :juncMain_48_0 :juncMain_49_0 :juncMain_50_0 :juncMain_51_0 :juncMain_21_0 :juncMain_52_0 :juncMain_53_0 :juncMain_54_0 :juncMain_55_0 :juncMain_56_0 :juncMain_27_0 :juncMain_57_0 :juncMain_58_0 :juncMain_30_0 :juncMain_59_0 :juncMain_60_0 :juncMain_61_0 :juncMain_c0_0 :juncMain_c1_0 :juncMain_c2_0 :juncMain_c3_0" shape="687.20,611.10 712.80,611.10 712.97,610.27 713.18,609.98 713.47,609.77 713.84,609.64 714.30,609.60 714.30,590.40 713.47,590.23 713.18,590.02 712.97,589.73 712.84,589.36 712.80,588.90 687.20,588.90 687.03,589.73 686.82,590.02 686.53,590.23 686.16,590.36 685.70,590.40 685.70,609.60 686.53,609.77 686.82,609.98 687.03,610.27 687.16,610.64">
        <request index="0"  response="10010000000000000000000000000000000000" foes="10011000000000110000000010010000000100" cont="1"/>
        <request index="1"  response="10010000000000000000000000000000000000" foes="10011000000000110000000010010000001000" cont="1"/>
        <request index="2"  response="10010000000000000000000000000000000001" foes="10011000000000110000000010010000000001" cont="1"/>
        <request index="3"  response="10010000000000000000000000000000000010" foes="10011000000000110000000010010000000010" cont="1"/>
        <request index="4"  response="01010110110110000000001100000000000000" foes="01010111111110110000001110010000000000" cont="0"/>
        <request index="5"  response="00110110000000001111101100000000000000" foes="00110111001000001111111110010000000000" cont="1"/>
        <request index="6"  response="00110110000000001111101100000000000000" foes="00110111001000001111111110010000000000" cont="1"/>
        <request index="7"  response="00010110000000000000000000000000000000" foes="00010110000000000000000000000000000000" cont="1"/>
        <request index="8"  response="00110000000000001000000000000000000000" foes="00110110000000001000000000100000000000" cont="1"/>
        <request index="9"  response="00110000000000001000000000000000000000" foes="00110110000000001000000001000000000000" cont="1"/>
        <request index="10" response="10100000000000111000000000000001111111" foes="10101110000000111000000001100001111111" cont="0"/>
        <request index="11" response="00110000000000001000000000010100000000" foes="00110110000000001000000000010100000000" cont="1"/>
        <request index="12" response="00110000000000001000000000011000000000" foes="00110110000000001000000000011000000000" cont="1"/>
        <request index="13" response="10100000000000111000000000000001111111" foes="10101110000000111000000000000001111111" cont="0"/>
        <request index="14" response="01100001111110111000000000000001110000" foes="01100001111111111000000000000001110000" cont="1"/>
        <request index="15" response="01100001111110111000000000000001110000" foes="01100001111111111000000000000001110000" cont="1"/>
        <request index="16" response="00100001001000000111100000000001100000" foes="00100001001000000111100000000001100000" cont="1"/>
        <request index="17" response="01100000000000000000000000000000000000" foes="01100001001000000010010000000001100000" cont="1"/>
        <request index="18" response="01100000000000000000000000000000000000" foes="01100001001000000100010000000001100000" cont="1"/>
        <request index="19" response="01100000000000000000100000000000000000" foes="01100001001000000000110000000001100000" cont="1"/>
        <request index="20" response="01100000000000000001000000000000000000" foes="01100001001000000001010000000001100000" cont="1"/>
        <request index="21" response="01010110000000000000001101101100000000" foes="01010111001000000000001111111101100000" cont="0"/>
        <request index="22" response="11000110000000000000001100000000011111" foes="11001111001000000000001110010000011111" cont="1"/>
        <request index="23" response="11000110000000000000001100000000011111" foes="11001111001000000000001110010000011111" cont="1"/>
        <request index="24" response="01000000000000000000001100000000000000" foes="01000000000000000000001100000000000000" cont="1"/>
        <request index="25" response="11000000000000000000000000000000010000" foes="11000000010000000000001100000000010000" cont="1"/>
        <request index="26" response="11000000000000000000000000000000010000" foes="11000000100000000000001100000000010000" cont="1"/>
        <request index="27" response="10100000000000111111100000000001110000" foes="10100000110000111111111100000001110000" cont="0"/>
        <request index="28" response="11000000001010000000000000000000010000" foes="11000000001010000000001100000000010000" cont="1"/>
        <request index="29" response="11000000001100000000000000000000010000" foes="11000000001100000000001100000000010000" cont="1"/>
        <request index="30" response="10100000000000111111100000000001110000" foes="10100000000000111111111100000001110000" cont="0"/>
        <request index="31" response="10010000000000111000000011111101110000" foes="10010000000000111000000011111111110000" cont="1"/>
        <request index="32" response="10010000000000111000000011111101110000" foes="10010000000000111000000011111111110000" cont="1"/>
        <request index="33" response="10000000000000110000000010010000001111" foes="10000000000000110000000010010000001111" cont="1"/>
        <request index="34" response="00000000000000000000000000000000000000" foes="00000110000000001000000001101111111111" cont="0"/>
        <request index="35" response="00000000000000000000000000000000000000" foes="00000001001000000111111111111101100000" cont="0"/>
        <request index="36" response="00000000000000000000000000000000000000" foes="00000000110111111111101100000000010000" cont="0"/>
        <request index="37" response="00000000000000000000000000000000000000" foes="00001111111110110000000010010000001111" cont="0"/>
    </junction>
    <junction id="juncN" type="priority" x="700.00" y="1400.00" incLanes="edgeN_I_0 edgeN_I_1 edgeN_I_2 edgeN_I_3" intLanes=":juncN_0_0" shape="700.00,1400.00 712.80,1400.00 700.00,1400.00">
        <request index="0" response="0" foes="0" cont="0"/>
    </junction>
    <junction id="juncS" type="priority" x="700.00" y="0.00" incLanes="edgeS_I_0 edgeS_I_1 edgeS_I_2 edgeS_I_3" intLanes=":juncS_0_0" shape="700.00,0.00 687.20,0.00 700.00,0.00">
        <request index="0" response="0" foes="0" cont="0"/>
    </junction>
    <junction id="juncW" type="priority" x="0.00" y="600.00" incLanes="edgeW_I_0 edgeW_I_1 edgeW_I_2" intLanes=":juncW_0_0" shape="0.00,600.00 0.00,609.60 0.00,600.00">
        <request index="0" response="0" foes="0" cont="0"/>
    </junction>

    <junction id=":juncMain_34_0" type="internal" x="690.20" y="606.24" incLanes=":juncMain_0_0" intLanes=":juncMain_0_2 :juncMain_10_0 :juncMain_13_0 :juncMain_22_0 :juncMain_22_1 :juncMain_33_0 :juncMain_c0_0 :juncMain_c3_0"/>
    <junction id=":juncMain_35_0" type="internal" x="690.20" y="603.77" incLanes=":juncMain_0_1" intLanes=":juncMain_0_3 :juncMain_10_0 :juncMain_13_0 :juncMain_22_0 :juncMain_22_1 :juncMain_33_0 :juncMain_c0_0 :juncMain_c3_0"/>