<routes>
   <personFlow id="pRegN" begin="0" end="3000" personsPerHour="706.955037">
        <walk edges="edgeN_O edgeS_I" speed="1.850265"/>
    </personFlow>
   <personFlow id="pRegS" begin="0" end="3000" personsPerHour="242.888853">
        <walk edges="edgeS_O edgeN_I" speed="2.151395"/>
    </personFlow>
   <personFlow id="pRegW" begin="0" end="3000" personsPerHour="300.669527">
        <walk edges="edgeW_O edgeE_I" speed="1.227666"/>
    </personFlow>
   <personFlow id="pRegE" begin="0" end="3000" personsPerHour="1012.472869">
        <walk edges="edgeE_O edgeW_I" speed="1.410573"/>
    </personFlow>
   <personFlow id="pOppN" begin="0" end="3000" personsPerHour="507.556956" departPos="500.000000">
        <walk edges="edgeN_I edgeS_O" speed="1.749694"/>
    </personFlow>
   <personFlow id="pOppS" begin="0" end="3000" personsPerHour="594.967684" departPos="900.000000">
        <walk edges="edgeS_I edgeN_O" speed="2.090750"/>
    </personFlow>
   <personFlow id="pOppW" begin="0" end="3000" personsPerHour="142.595501" departPos="800.000000">
        <walk edges="edgeW_I edgeE_O" speed="1.302085"/>
    </personFlow>
   <personFlow id="pOppE" begin="0" end="3000" personsPerHour="248.135872" departPos="700.000000">
        <walk edges="edgeE_I edgeW_O" speed="1.158374"/>
    </personFlow>

    <route id="edgeN_edgeN" edges="edgeN_O edgeN_I" />
    <route id="edgeN_edgeS" edges="edgeN_O edgeS_I" />
    <route id="edgeN_edgeW" edges="edgeN_O edgeW_I" />
    <route id="edgeN_edgeE" edges="edgeN_O edgeE_I" />
    <route id="edgeS_edgeN" edges="edgeS_O edgeN_I" />
    <route id="edgeS_edgeS" edges="edgeS_O edgeS_I" />
    <route id="edgeS_edgeW" edges="edgeS_O edgeW_I" />
    <route id="edgeS_edgeE" edges="edgeS_O edgeE_I" />
    <route id="edgeW_edgeN" edges="edgeW_O edgeN_I" />
    <route id="edgeW_edgeS" edges="edgeW_O edgeS_I" />
    <route id="edgeW_edgeW" edges="edgeW_O edgeW_I" />
    <route id="edgeW_edgeE" edges="edgeW_O edgeE_I" />
    <route id="edgeE_edgeN" edges="edgeE_O edgeN_I" />
    <route id="edgeE_edgeS" edges="edgeE_O edgeS_I" />
    <route id="edgeE_edgeW" edges="edgeE_O edgeW_I" />
    <route id="edgeE_edgeE" edges="edgeE_O edgeE_I" />
    
   <vType id="vehicleS_0" length="4.332000" accel="3.443000" decel="5.573000" sigma="0.5" minGap="2.434572" maxSpeed="121.419635" guiShape="passenger" />
   <vehicle id="straightS_0" type="vehicleS_0" route="edgeS_edgeN" depart="0" departLane="2" />

   <vType id="vehicleE_1" length="4.347000" accel="3.193000" decel="5.144000" sigma="0.5" minGap="2.434572" maxSpeed="121.419635" guiShape="passenger" />
   <vehicle id="leftE_1" type="vehicleE_1" route="edgeE_edgeS" depart="0" departLane="4" />

   <vType id="vehicleN_2" length="5.270000" accel="2.089000" decel="6.053000" sigma="0.5" minGap="2.434572" maxSpeed="121.419635" guiShape="passenger" />
   <vehicle id="straightN_2" type="vehicleN_2" route="edgeN_edgeS" depart="1" departLane="3" />

   <vType id="vehicleW_3" length="4.513000" accel="2.249000" decel="3.419000" sigma="0.5" minGap="2.434572" maxSpeed="121.419635" guiShape="passenger" />
   <vehicle id="rightW_3" type="vehicleW_3" route="edgeW_edgeS" depart="1" departLane="1" />

   <vType id="vehicleE_4" length="4.438000" accel="2.225000" decel="3.924000" sigma="0.5" minGap="2.434572" maxSpeed="121.419635" guiShape="passenger" />
   <vehicle id="straightE_4" type="vehicleE_4" route="edgeE_edgeW" depart="4" departLane="1" />

   <vType id="vehicleE_5" length="5.047000" accel="3.378000" decel="5.598000" sigma="0.5" minGap="2.434572" maxSpeed="121.419635" guiShape="passenger" />
   <vehicle id="straightE_5" type="vehicleE_5" route="edgeE_edgeW" depart="5" departLane="1" />

   <vType id="vehicleS_6" length="4.236000" accel="2.780000" decel="6.735000" sigma="0.5" minGap="2.434572" maxSpeed="121.419635" guiShape="passenger" />
   <vehicle id="rightS_6" type="vehicleS_6" route="edgeS_edgeE" depart="6" departLane="1" />

   <vType id="vehicleW_7" length="4.403000" accel="2.468000" decel="6.562000" sigma="0.5" minGap="2.434572" maxSpeed="121.419635" guiShape="passenger" />
   <vehicle id="straightW_7" type="vehicleW_7" route="edgeW_edgeE" depart="7" departLane="3" />

   <vType id="vehicleE_8" length="5.167000" accel="3.076000" decel="5.834000" sigma="0.5" minGap="2.434572" maxSpeed="121.419635" guiShape="passenger" />
   <vehicle id="leftE_8" type="vehicleE_8" route="edgeE_edgeS" depart="8" departLane="4" />

   <vType id="vehicleW_9" length="4.790000" accel="2.245000" decel="3.235000" sigma="0.5" minGap="2.434572" maxSpeed="121.419635" guiShape="passenger" />
   <vehicle id="uturnW_9" type="vehicleW_9" route="edgeW_edgeW" depart="9" departLane="4" />

   <vType id="vehicleE_10" length="5.242000" accel="2.860000" decel="3.296000" sigma="0.5" minGap="2.434572" maxSpeed="121.419635" guiShape="passenger" />
   <vehicle id="straightE_10" type="vehicleE_10" route="edgeE_edgeW" depart="9" departLane="4" />

   <vType id="vehicleW_11" length="5.483000" accel="3.338000" decel="3.485000" sigma="0.5" minGap="2.434572" maxSpeed="121.419635" guiShape="passenger" />
   <vehicle id="straightW_11" type="vehicleW_11" route="edgeW_edgeE" depart="10" departLane="3" />

   <vType id="vehicleW_12" length="5.130000" accel="3.411000" decel="6.669000" sigma="0.5" minGap="2.434572" maxSpeed="121.419635" guiShape="passenger" />
   <vehicle id="leftW_12" type="vehicleW_12" route="edgeW_edgeN" depart="11" departLane="4" />

   <vType id="vehicleN_13" length="5.321000" accel="3.018000" decel="3.799000" sigma="0.5" minGap="2.434572" maxSpeed="121.419635" guiShape="passenger" />
   <vehicle id="straightN_13" type="vehicleN_13" route="edgeN_edgeS" depart="12" departLane="3" />

   <vType id="vehicleS_14" length="4.006000" accel="3.800000" decel="6.323000" sigma="0.5" minGap="2.434572" maxSpeed="121.419635" guiShape="passenger" />
   <vehicle id="straightS_14" type="vehicleS_14" route="edgeS_edgeN" depart="13" departLane="3" />

   <vType id="vehicleW_15" length="4.883000" accel="2.223000" decel="5.778000" sigma="0.5" minGap="2.434572" maxSpeed="121.419635" guiShape="passenger" />
   <vehicle id="straightW_15" type="vehicleW_15" route="edgeW_edgeE" depart="13" departLane="1" />

   <vType id="vehicleS_16" length="5.490000" accel="2.383000" decel="5.020000" sigma="0.5" minGap="2.434572" maxSpeed="121.419635" guiShape="passenger" />
   <vehicle id="straightS_16" type="vehicleS_16" route="edgeS_edgeN" depart="14" departLane="3" />

   <vType id="vehicleN_17" length="4.009000" accel="3.104000" decel="5.245000" sigma="0.5" minGap="2.434572" maxSpeed="121.419635" guiShape="passenger" />
   <vehicle id="straightN_17" type="vehicleN_17" route="edgeN_edgeS" depart="17" departLane="2" />

   <vType id="vehicleS_18" length="4.341000" accel="3.756000" decel="6.252000" sigma="0.5" minGap="2.434572" maxSpeed="121.419635" guiShape="passenger" />
   <vehicle id="straightS_18" type="vehicleS_18" route="edgeS_edgeN" depart="17" departLane="2" />

   <vType id="vehicleN_19" length="4.542000" accel="2.839000" decel="6.268000" sigma="0.5" minGap="2.434572" maxSpeed="121.419635" guiShape="passenger" />
   <vehicle id="straightN_19" type="vehicleN_19" route="edgeN_edgeS" depart="20" departLane="2" />

   <vType id="vehicleE_20" length="4.518000" accel="3.675000" decel="3.983000" sigma="0.5" minGap="2.434572" maxSpeed="121.419635" guiShape="passenger" />
   <vehicle id="straightE_20" type="vehicleE_20" route="edgeE_edgeW" depart="20" departLane="2" />

   <vType id="vehicleS_21" length="4.715000" accel="3.698000" decel="3.340000" sigma="0.5" minGap="2.434572" maxSpeed="121.419635" guiShape="passenger" />
   <vehicle id="straightS_21" type="vehicleS_21" route="edgeS_edgeN" depart="21" departLane="2" />

   <vType id="vehicleW_22" length="5.312000" accel="3.874000" decel="6.500000" sigma="0.5" minGap="2.434572" maxSpeed="121.419635" guiShape="passenger" />
   <vehicle id="uturnW_22" type="vehicleW_22" route="edgeW_edgeW" depart="21" departLane="4" />

   <vType id="vehicleN_23" length="4.317000" accel="2.820000" decel="3.278000" sigma="0.5" minGap="2.434572" maxSpeed="121.419635" guiShape="passenger" />
   <vehicle id="straightN_23" type="vehicleN_23" route="edgeN_edgeS" depart="22" departLane="3" />

   <vType id="vehicleS_24" length="5.457000" accel="3.533000" decel="4.119000" sigma="0.5" minGap="2.434572" maxSpeed="121.419635" guiShape="passenger" />
   <vehicle id="straightS_24" type="vehicleS_24" route="edgeS_edgeN" depart="22" departLane="3" />

   <vType id="vehicleW_25" length="5.525000" accel="3.151000" decel="5.074000" sigma="0.5" minGap="2.434572" maxSpeed="121.419635" guiShape="passenger" />
   <vehicle id="straightW_25" type="vehicleW_25" route="edgeW_edgeE" depart="22" departLane="3" />

   <vType id="vehicleE_26" length="4.779000" accel="3.658000" decel="3.645000" sigma="0.5" minGap="2.434572" maxSpeed="121.419635" guiShape="passenger" />
   <vehicle id="straightE_26" type="vehicleE_26" route="edgeE_edgeW" depart="22" departLane="1" />

   <vType id="vehicleS_27" length="5.354000" accel="2.826000" decel="6.557000" sigma="0.5" minGap="2.434572" maxSpeed="121.419635" guiShape="passenger" />
   <vehicle id="straightS_27" type="vehicleS_27" route="edgeS_edgeN" depart="23" departLane="2" />

   <vType id="vehicleE_28" length="5.027000" accel="3.125000" decel="4.235000" sigma="0.5" minGap="2.434572" maxSpeed="121.419635" guiShape="passenger" />
   <vehicle id="leftE_28" type="vehicleE_28" route="edgeE_edgeS" depart="23" departLane="4" />

   <vType id="vehicleN_29" length="4.357000" accel="2.811000" decel="5.554000" sigma="0.5" minGap="2.434572" maxSpeed="121.419635" guiShape="passenger" />
   <vehicle id="rightN_29" type="vehicleN_29" route="edgeN_edgeW" depart="24" departLane="2" />

   <vType id="vehicleN_30" length="4.876000" accel="2.262000" decel="5.057000" sigma="0.5" minGap="2.434572" maxSpeed="121.419635" guiShape="passenger" />
   <vehicle id="straightN_30" type="vehicleN_30" route="edgeN_edgeS" depart="25" departLane="3" />

   <vType id="vehicleS_31" length="4.085000" accel="2.530000" decel="4.118000" sigma="0.5" minGap="2.434572" maxSpeed="121.419635" guiShape="passenger" />
   <vehicle id="straightS_31" type="vehicleS_31" route="edgeS_edgeN" depart="25" departLane="3" />

   <vType id="vehicleE_32" length="4.454000" accel="3.307000" decel="6.547000" sigma="0.5" minGap="2.434572" maxSpeed="121.419635" guiShape="passenger" />
   <vehicle id="straightE_32" type="vehicleE_32" route="edgeE_edgeW" depart="26" departLane="2" />

   <vType id="vehicleN_33" length="5.163000" accel="2.365000" decel="4.106000" sigma="0.5" minGap="2.434572" maxSpeed="121.419635" guiShape="passenger" />
   <vehicle id="rightN_33" type="vehicleN_33" route="edgeN_edgeW" depart="27" departLane="1" />

   <vType id="vehicleW_34" length="4.397000" accel="2.983000" decel="6.422000" sigma="0.5" minGap="2.434572" maxSpeed="121.419635" guiShape="passenger" />
   <vehicle id="straightW_34" type="vehicleW_34" route="edgeW_edgeE" depart="27" departLane="1" />

   <vType id="vehicleE_35" length="4.418000" accel="2.083000" decel="5.924000" sigma="0.5" minGap="2.434572" maxSpeed="121.419635" guiShape="passenger" />
   <vehicle id="straightE_35" type="vehicleE_35" route="edgeE_edgeW" depart="27" departLane="3" />

   <vType id="vehicleN_36" length="5.104000" accel="3.117000" decel="3.475000" sigma="0.5" minGap="2.434572" maxSpeed="121.419635" guiShape="passenger" />
   <vehicle id="straightN_36" type="vehicleN_36" route="edgeN_edgeS" depart="28" departLane="2" />

   <vType id="vehicleN_37" length="4.468000" accel="3.744000" decel="6.017000" sigma="0.5" minGap="2.434572" maxSpeed="121.419635" guiShape="passenger" />
   <vehicle id="straightN_37" type="vehicleN_37" route="edgeN_edgeS" depart="29" departLane="2" />

   <vType id="vehicleW_38" length="4.139000" accel="3.523000" decel="6.343000" sigma="0.5" minGap="2.434572" maxSpeed="121.419635" guiShape="passenger" />
   <vehicle id="straightW_38" type="vehicleW_38" route="edgeW_edgeE" depart="29" departLane="4" />

   <vType id="vehicleW_39" length="5.255000" accel="2.405000" decel="4.591000" sigma="0.5" minGap="2.434572" maxSpeed="121.419635" guiShape="passenger" />
   <vehicle id="straightW_39" type="vehicleW_39" route="edgeW_edgeE" depart="30" departLane="2" />

   <vType id="vehicleE_40" length="5.349000" accel="2.489000" decel="6.093000" sigma="0.5" minGap="2.434572" maxSpeed="121.419635" guiShape="passenger" />
   <vehicle id="rightE_40" type="vehicleE_40" route="edgeE_edgeN" depart="32" departLane="1" />

   <vType id="vehicleW_41" length="5.212000" accel="2.728000" decel="4.952000" sigma="0.5" minGap="2.434572" maxSpeed="121.419635" guiShape="passenger" />
   <vehicle id="leftW_41" type="vehicleW_41" route="edgeW_edgeN" depart="34" departLane="4" />

   <vType id="vehicleN_42" length="4.261000" accel="3.862000" decel="4.046000" sigma="0.5" minGap="2.434572" maxSpeed="121.419635" guiShape="passenger" />
   <vehicle id="uturnN_42" type="vehicleN_42" route="edgeN_edgeN" depart="35" departLane="4" />

   <vType id="vehicleS_43" length="5.140000" accel="2.658000" decel="5.311000" sigma="0.5" minGap="2.434572" maxSpeed="121.419635" guiShape="passenger" />
   <vehicle id="straightS_43" type="vehicleS_43" route="edgeS_edgeN" depart="35" departLane="2" />

   <vType id="vehicleN_44" length="3.978000" accel="3.793000" decel="5.060000" sigma="0.5" minGap="2.434572" maxSpeed="121.419635" guiShape="passenger" />
   <vehicle id="rightN_44" type="vehicleN_44" route="edgeN_edgeW" depart="36" departLane="1" />

   <vType id="vehicleW_45" length="4.503000" accel="2.659000" decel="6.209000" sigma="0.5" minGap="2.434572" maxSpeed="121.419635" guiShape="passenger" />
   <vehicle id="straightW_45" type="vehicleW_45" route="edgeW_edgeE" depart="36" departLane="3" />

   <vType id="vehicleN_46" length="4.581000" accel="3.464000" decel="3.706000" sigma="0.5" minGap="2.434572" maxSpeed="121.419635" guiShape="passenger" />
   <vehicle id="straightN_46" type="vehicleN_46" route="edgeN_edgeS" depart="38" departLane="3" />

   <vType id="vehicleN_47" length="4.945000" accel="2.674000" decel="4.701000" sigma="0.5" minGap="2.434572" maxSpeed="121.419635" guiShape="passenger" />
   <vehicle id="rightN_47" type="vehicleN_47" route="edgeN_edgeW" depart="39" departLane="1" />

   <vType id="vehicleW_48" length="4.966000" accel="2.250000" decel="6.595000" sigma="0.5" minGap="2.434572" maxSpeed="121.419635" guiShape="passenger" />
   <vehicle id="straightW_48" type="vehicleW_48" route="edgeW_edgeE" depart="40" departLane="2" />

   <vType id="vehicleN_49" length="4.014000" accel="2.531000" decel="4.824000" sigma="0.5" minGap="2.434572" maxSpeed="121.419635" guiShape="passenger" />
   <vehicle id="straightN_49" type="vehicleN_49" route="edgeN_edgeS" depart="41" departLane="2" />

   <vType id="vehicleE_50" length="5.403000" accel="3.672000" decel="6.348000" sigma="0.5" minGap="2.434572" maxSpeed="121.419635" guiShape="passenger" />
   <vehicle id="straightE_50" type="vehicleE_50" route="edgeE_edgeW" depart="42" departLane="4" />

   <vType id="vehicleN_51" length="5.088000" accel="2.938000" decel="5.130000" sigma="0.5" minGap="2.434572" maxSpeed="121.419635" guiShape="passenger" />
   <vehicle id="rightN_51" type="vehicleN_51" route="edgeN_edgeW" depart="43" departLane="1" />

   <vType id="vehicleN_52" length="4.995000" accel="3.497000" decel="4.996000" sigma="0.5" minGap="2.434572" maxSpeed="121.419635" guiShape="passenger" />
   <vehicle id="straightN_52" type="vehicleN_52" route="edgeN_edgeS" depart="47" departLane="2" />

   <vType id="vehicleW_53" length="4.410000" accel="2.670000" decel="5.066000" sigma="0.5" minGap="2.434572" maxSpeed="121.419635" guiShape="passenger" />
   <vehicle id="straightW_53" type="vehicleW_53" route="edgeW_edgeE" depart="47" departLane="2" />

   <vType id="vehicleE_54" length="4.219000" accel="2.474000" decel="4.601000" sigma="0.5" minGap="2.434572" maxSpeed="121.419635" guiShape="passenger" />
   <vehicle id="straightE_54" type="vehicleE_54" route="edgeE_edgeW" depart="47" departLane="3" />

   <vType id="vehicleW_55" length="5.423000" accel="3.160000" decel="5.643000" sigma="0.5" minGap="2.434572" maxSpeed="121.419635" guiShape="passenger" />
   <vehicle id="straightW_55" type="vehicleW_55" route="edgeW_edgeE" depart="48" departLane="4" />

   <vType id="vehicleW_56" length="4.597000" accel="3.317000" decel="6.024000" sigma="0.5" minGap="2.434572" maxSpeed="121.419635" guiShape="passenger" />
   <vehicle id="straightW_56" type="vehicleW_56" route="edgeW_edgeE" depart="51" departLane="2" />

   <vType id="vehicleW_57" length="5.362000" accel="2.414000" decel="4.026000" sigma="0.5" minGap="2.434572" maxSpeed="121.419635" guiShape="passenger" />
   <vehicle id="straightW_57" type="vehicleW_57" route="edgeW_edgeE" depart="53" departLane="3" />

   <vType id="vehicleW_58" length="4.838000" accel="3.931000" decel="4.360000" sigma="0.5" minGap="2.434572" maxSpeed="121.419635" guiShape="passenger" />
   <vehicle id="leftW_58" type="vehicleW_58" route="edgeW_edgeN" depart="55" departLane="4" />

   <vType id="vehicleN_59" length="4.177000" accel="3.318000" decel="5.154000" sigma="0.5" minGap="2.434572" maxSpeed="121.419635" guiShape="passenger" />
   <vehicle id="straightN_59" type="vehicleN_59" route="edgeN_edgeS" depart="57" departLane="2" />

   <vType id="vehicleW_60" length="4.944000" accel="3.864000" decel="5.728000" sigma="0.5" minGap="2.434572" maxSpeed="121.419635" guiShape="passenger" />
   <vehicle id="straightW_60" type="vehicleW_60" route="edgeW_edgeE" depart="57" departLane="2" />

   <vType id="vehicleN_61" length="4.474000" accel="3.333000" decel="6.618000" sigma="0.5" minGap="2.434572" maxSpeed="121.419635" guiShape="passenger" />
   <vehicle id="straightN_61" type="vehicleN_61" route="edgeN_edgeS" depart="58" departLane="3" />

   <vType id="vehicleW_62" length="5.304000" accel="2.527000" decel="5.649000" sigma="0.5" minGap="2.434572" maxSpeed="121.419635" guiShape="passenger" />
   <vehicle id="straightW_62" type="vehicleW_62" route="edgeW_edgeE" depart="58" departLane="3" />

   <vType id="vehicleS_63" length="5.227000" accel="2.721000" decel="4.651000" sigma="0.5" minGap="2.434572" maxSpeed="121.419635" guiShape="passenger" />
   <vehicle id="uturnS_63" type="vehicleS_63" route="edgeS_edgeS" depart="59" departLane="4" />

   <vType id="vehicleE_64" length="4.992000" accel="3.614000" decel="5.687000" sigma="0.5" minGap="2.434572" maxSpeed="121.419635" guiShape="passenger" />
   <vehicle id="rightE_64" type="vehicleE_64" route="edgeE_edgeN" depart="60" departLane="1" />

   <vType id="vehicleN_65" length="5.016000" accel="3.219000" decel="6.475000" sigma="0.5" minGap="2.434572" maxSpeed="121.419635" guiShape="passenger" />
   <vehicle id="straightN_65" type="vehicleN_65" route="edgeN_edgeS" depart="61" departLane="3" />

   <vType id="vehicleW_66" length="4.543000" accel="2.556000" decel="4.098000" sigma="0.5" minGap="2.434572" maxSpeed="121.419635" guiShape="passenger" />
   <vehicle id="straightW_66" type="vehicleW_66" route="edgeW_edgeE" depart="64" departLane="3" />

   <vType id="vehicleS_67" length="4.625000" accel="3.106000" decel="3.952000" sigma="0.5" minGap="2.434572" maxSpeed="121.419635" guiShape="passenger" />
   <vehicle id="straightS_67" type="vehicleS_67" route="edgeS_edgeN" depart="65" departLane="3" />

   <vType id="vehicleS_68" length="5.082000" accel="2.645000" decel="5.220000" sigma="0.5" minGap="2.434572" maxSpeed="121.419635" guiShape="passenger" />
   <vehicle id="straightS_68" type="vehicleS_68" route="edgeS_edgeN" depart="66" departLane="3" />

   <vType id="vehicleE_69" length="4.062000" accel="2.619000" decel="6.566000" sigma="0.5" minGap="2.434572" maxSpeed="121.419635" guiShape="passenger" />
   <vehicle id="leftE_69" type="vehicleE_69" route="edgeE_edgeS" depart="72" departLane="4" />

   <vType id="vehicleN_70" length="4.430000" accel="2.965000" decel="4.325000" sigma="0.5" minGap="2.434572" maxSpeed="121.419635" guiShape="passenger" />
   <vehicle id="straightN_70" type="vehicleN_70" route="edgeN_edgeS" depart="73" departLane="2" />

   <vType id="vehicleE_71" length="4.762000" accel="3.147000" decel="5.609000" sigma="0.5" minGap="2.434572" maxSpeed="121.419635" guiShape="passenger" />
   <vehicle id="leftE_71" type="vehicleE_71" route="edgeE_edgeS" depart="73" departLane="4" />

   <vType id="vehicleN_72" length="4.461000" accel="3.920000" decel="3.500000" sigma="0.5" minGap="2.434572" maxSpeed="121.419635" guiShape="passenger" />
   <vehicle id="straightN_72" type="vehicleN_72" route="edgeN_edgeS" depart="74" departLane="3" />

   <vType id="vehicleW_73" length="5.031000" accel="2.368000" decel="3.705000" sigma="0.5" minGap="2.434572" maxSpeed="121.419635" guiShape="passenger" />
   <vehicle id="straightW_73" type="vehicleW_73" route="edgeW_edgeE" depart="77" departLane="1" />

   <vType id="vehicleE_74" length="5.078000" accel="2.948000" decel="3.181000" sigma="0.5" minGap="2.434572" maxSpeed="121.419635" guiShape="passenger" />
   <vehicle id="straightE_74" type="vehicleE_74" route="edgeE_edgeW" depart="77" departLane="3" />

   <vType id="vehicleW_75" length="4.467000" accel="3.466000" decel="5.174000" sigma="0.5" minGap="2.434572" maxSpeed="121.419635" guiShape="passenger" />
   <vehicle id="straightW_75" type="vehicleW_75" route="edgeW_edgeE" depart="81" departLane="3" />

   <vType id="vehicleW_76" length="5.054000" accel="3.673000" decel="5.240000" sigma="0.5" minGap="2.434572" maxSpeed="121.419635" guiShape="passenger" />
   <vehicle id="straightW_76" type="vehicleW_76" route="edgeW_edgeE" depart="84" departLane="1" />

   <vType id="vehicleW_77" length="4.728000" accel="3.285000" decel="6.462000" sigma="0.5" minGap="2.434572" maxSpeed="121.419635" guiShape="passenger" />
   <vehicle id="straightW_77" type="vehicleW_77" route="edgeW_edgeE" depart="85" departLane="2" />

   <vType id="vehicleW_78" length="4.633000" accel="2.996000" decel="5.521000" sigma="0.5" minGap="2.434572" maxSpeed="121.419635" guiShape="passenger" />
   <vehicle id="straightW_78" type="vehicleW_78" route="edgeW_edgeE" depart="87" departLane="4" />

   <vType id="vehicleW_79" length="5.527000" accel="2.826000" decel="4.971000" sigma="0.5" minGap="2.434572" maxSpeed="121.419635" guiShape="passenger" />
   <vehicle id="straightW_79" type="vehicleW_79" route="edgeW_edgeE" depart="88" departLane="1" />

   <vType id="vehicleW_80" length="5.185000" accel="3.237000" decel="5.882000" sigma="0.5" minGap="2.434572" maxSpeed="121.419635" guiShape="passenger" />
   <vehicle id="straightW_80" type="vehicleW_80" route="edgeW_edgeE" depart="89" departLane="2" />

   <vType id="vehicleN_81" length="5.384000" accel="2.976000" decel="3.167000" sigma="0.5" minGap="2.434572" maxSpeed="121.419635" guiShape="passenger" />
   <vehicle id="straightN_81" type="vehicleN_81" route="edgeN_edgeS" depart="90" departLane="2" />

   <vType id="vehicleW_82" length="4.628000" accel="2.493000" decel="6.185000" sigma="0.5" minGap="2.434572" maxSpeed="121.419635" guiShape="passenger" />
   <vehicle id="leftW_82" type="vehicleW_82" route="edgeW_edgeN" depart="90" departLane="4" />

   <vType id="vehicleN_83" length="4.772000" accel="3.406000" decel="4.950000" sigma="0.5" minGap="2.434572" maxSpeed="121.419635" guiShape="passenger" />
   <vehicle id="rightN_83" type="vehicleN_83" route="edgeN_edgeW" depart="91" departLane="2" />

   <vType id="vehicleS_84" length="4.934000" accel="3.461000" decel="3.567000" sigma="0.5" minGap="2.434572" maxSpeed="121.419635" guiShape="passenger" />
   <vehicle id="straightS_84" type="vehicleS_84" route="edgeS_edgeN" depart="92" departLane="2" />

   <vType id="vehicleW_85" length="4.639000" accel="3.809000" decel="4.946000" sigma="0.5" minGap="2.434572" maxSpeed="121.419635" guiShape="passenger" />
   <vehicle id="straightW_85" type="vehicleW_85" route="edgeW_edgeE" depart="92" departLane="1" />

   <vType id="vehicleN_86" length="5.573000" accel="2.985000" decel="3.612000" sigma="0.5" minGap="2.434572" maxSpeed="121.419635" guiShape="passenger" />
   <vehicle id="straightN_86" type="vehicleN_86" route="edgeN_edgeS" depart="93" departLane="3" />

   <vType id="vehicleW_87" length="4.890000" accel="2.510000" decel="5.940000" sigma="0.5" minGap="2.434572" maxSpeed="121.419635" guiShape="passenger" />
   <vehicle id="straightW_87" type="vehicleW_87" route="edgeW_edgeE" depart="94" departLane="1" />

   <vType id="vehicleW_88" length="4.177000" accel="3.867000" decel="4.293000" sigma="0.5" minGap="2.434572" maxSpeed="121.419635" guiShape="passenger" />
   <vehicle id="rightW_88" type="vehicleW_88" route="edgeW_edgeS" depart="96" departLane="1" />

   <vType id="vehicleW_89" length="5.525000" accel="2.705000" decel="5.632000" sigma="0.5" minGap="2.434572" maxSpeed="121.419635" guiShape="passenger" />
   <vehicle id="straightW_89" type="vehicleW_89" route="edgeW_edgeE" depart="98" departLane="1" />

   <vType id="vehicleE_90" length="4.985000" accel="3.785000" decel="6.764000" sigma="0.5" minGap="2.434572" maxSpeed="121.419635" guiShape="passenger" />
   <vehicle id="leftE_90" type="vehicleE_90" route="edgeE_edgeS" depart="100" departLane="4" />

   <vType id="vehicleS_91" length="5.371000" accel="2.900000" decel="5.637000" sigma="0.5" minGap="2.434572" maxSpeed="121.419635" guiShape="passenger" />
   <vehicle id="straightS_91" type="vehicleS_91" route="edgeS_edgeN" depart="101" departLane="2" />

   <vType id="vehicleW_92" length="4.444000" accel="2.772000" decel="3.600000" sigma="0.5" minGap="2.434572" maxSpeed="121.419635" guiShape="passenger" />
   <vehicle id="straightW_92" type="vehicleW_92" route="edgeW_edgeE" depart="101" departLane="4" />

   <vType id="vehicleS_93" length="5.368000" accel="3.226000" decel="3.954000" sigma="0.5" minGap="2.434572" maxSpeed="121.419635" guiShape="passenger" />
   <vehicle id="straightS_93" type="vehicleS_93" route="edgeS_edgeN" depart="102" departLane="2" />

   <vType id="vehicleW_94" length="4.710000" accel="3.313000" decel="6.398000" sigma="0.5" minGap="2.434572" maxSpeed="121.419635" guiShape="passenger" />
   <vehicle id="straightW_94" type="vehicleW_94" route="edgeW_edgeE" depart="102" departLane="4" />

   <vType id="vehicleS_95" length="4.528000" accel="3.166000" decel="5.433000" sigma="0.5" minGap="2.434572" maxSpeed="121.419635" guiShape="passenger" />
   <vehicle id="straightS_95" type="vehicleS_95" route="edgeS_edgeN" depart="103" departLane="3" />

   <vType id="vehicleE_96" length="4.549000" accel="2.625000" decel="5.657000" sigma="0.5" minGap="2.434572" maxSpeed="121.419635" guiShape="passenger" />
   <vehicle id="straightE_96" type="vehicleE_96" route="edgeE_edgeW" depart="104" departLane="1" />

   <vType id="vehicleW_97" length="5.072000" accel="3.458000" decel="3.242000" sigma="0.5" minGap="2.434572" maxSpeed="121.419635" guiShape="passenger" />
   <vehicle id="straightW_97" type="vehicleW_97" route="edgeW_edgeE" depart="105" departLane="4" />

   <vType id="vehicleW_98" length="4.325000" accel="2.429000" decel="3.991000" sigma="0.5" minGap="2.434572" maxSpeed="121.419635" guiShape="passenger" />
   <vehicle id="straightW_98" type="vehicleW_98" route="edgeW_edgeE" depart="106" departLane="2" />

   <vType id="vehicleW_99" length="4.902000" accel="3.435000" decel="3.395000" sigma="0.5" minGap="2.434572" maxSpeed="121.419635" guiShape="passenger" />
   <vehicle id="straightW_99" type="vehicleW_99" route="edgeW_edgeE" depart="107" departLane="3" />

   <vType id="vehicleS_100" length="5.377000" accel="2.755000" decel="4.923000" sigma="0.5" minGap="2.434572" maxSpeed="121.419635" guiShape="passenger" />
   <vehicle id="rightS_100" type="vehicleS_100" route="edgeS_edgeE" depart="108" departLane="2" />

   <vType id="vehicleS_101" length="4.200000" accel="3.869000" decel="6.254000" sigma="0.5" minGap="2.434572" maxSpeed="121.419635" guiShape="passenger" />
   <vehicle id="uturnS_101" type="vehicleS_101" route="edgeS_edgeS" depart="110" departLane="4" />

   <vType id="vehicleN_102" length="4.702000" accel="3.324000" decel="5.557000" sigma="0.5" minGap="2.434572" maxSpeed="121.419635" guiShape="passenger" />
   <vehicle id="straightN_102" type="vehicleN_102" route="edgeN_edgeS" depart="112" departLane="3" />

   <vType id="vehicleE_103" length="4.015000" accel="3.717000" decel="5.145000" sigma="0.5" minGap="2.434572" maxSpeed="121.419635" guiShape="passenger" />
   <vehicle id="straightE_103" type="vehicleE_103" route="edgeE_edgeW" depart="112" departLane="2" />

   <vType id="vehicleS_104" length="4.034000" accel="3.924000" decel="3.491000" sigma="0.5" minGap="2.434572" maxSpeed="121.419635" guiShape="passenger" />
   <vehicle id="straightS_104" type="vehicleS_104" route="edgeS_edgeN" depart="114" departLane="2" />

   <vType id="vehicleE_105" length="5.048000" accel="3.455000" decel="6.573000" sigma="0.5" minGap="2.434572" maxSpeed="121.419635" guiShape="passenger" />
   <vehicle id="straightE_105" type="vehicleE_105" route="edgeE_edgeW" depart="114" departLane="4" />

   <vType id="vehicleS_106" length="4.353000" accel="2.749000" decel="6.703000" sigma="0.5" minGap="2.434572" maxSpeed="121.419635" guiShape="passenger" />
   <vehicle id="straightS_106" type="vehicleS_106" route="edgeS_edgeN" depart="117" departLane="3" />

   <vType id="vehicleW_107" length="5.332000" accel="2.920000" decel="5.521000" sigma="0.5" minGap="2.434572" maxSpeed="121.419635" guiShape="passenger" />
   <vehicle id="leftW_107" type="vehicleW_107" route="edgeW_edgeN" depart="118" departLane="4" />

   <vType id="vehicleE_108" length="5.557000" accel="3.536000" decel="3.822000" sigma="0.5" minGap="2.434572" maxSpeed="121.419635" guiShape="passenger" />
   <vehicle id="straightE_108" type="vehicleE_108" route="edgeE_edgeW" depart="118" departLane="2" />
