<?xml version="1.0" encoding="UTF-8"?>

<!-- generated on 2021-10-25 04:47:18 by Eclipse SUMO netconvert Version 1.10.0
<configuration xmlns:xsi="http://www.w3.org/2001/XMLSchema-instance" xsi:noNamespaceSchemaLocation="http://sumo.dlr.de/xsd/netconvertConfiguration.xsd">

    <input>
        <node-files value="data/cross.nod.xml"/>
        <edge-files value="data/cross.edg.xml"/>
        <connection-files value="data/cross.con.xml"/>
    </input>

    <output>
        <output-file value="data/cross.net.xml"/>
    </output>

    <junctions>
        <no-turnarounds.except-turnlane value="true"/>
    </junctions>

    <report>
        <aggregate-warnings value="5"/>
    </report>

</configuration>
-->

<net version="1.9" junctionCornerDetail="5" limitTurnSpeed="5.50" xmlns:xsi="http://www.w3.org/2001/XMLSchema-instance" xsi:noNamespaceSchemaLocation="http://sumo.dlr.de/xsd/net_file.xsd">

    <location netOffset="500.00,800.00" convBoundary="0.00,0.00,1400.00,1300.00" origBoundary="-500.00,-800.00,900.00,500.00" projParameter="!"/>

    <edge id=":juncE_0" function="internal">
        <lane id=":juncE_0_0" index="0" disallow="pedestrian" speed="3.65" length="4.67" shape="1400.00,798.40 1401.20,799.20 1401.60,800.00 1401.20,800.80 1400.00,801.60"/>
    </edge>
    <edge id=":juncE_w0" function="walkingarea">
        <lane id=":juncE_w0_0" index="0" allow="pedestrian" speed="1.00" length="41.60" width="3.20" shape="1400.00,819.20 1400.00,822.40 1400.00,777.60 1400.00,780.80"/>
    </edge>
    <edge id=":juncMain_0" function="internal">
        <lane id=":juncMain_0_0" index="0" disallow="pedestrian" speed="6.86" length="5.34" shape="485.60,823.90 485.21,821.14 484.03,819.17 483.80,819.04"/>
        <lane id=":juncMain_0_1" index="1" disallow="pedestrian" speed="7.64" length="7.67" shape="485.60,823.90 485.21,819.74 484.03,816.77 483.80,816.57"/>
    </edge>
    <edge id=":juncMain_2" function="internal">
        <lane id=":juncMain_2_0" index="0" disallow="pedestrian" speed="26.13" length="47.80" shape="488.80,823.90 488.80,776.10"/>
        <lane id=":juncMain_2_1" index="1" disallow="pedestrian" speed="26.13" length="47.80" shape="492.00,823.90 492.00,776.10"/>
        <lane id=":juncMain_2_2" index="2" disallow="pedestrian" speed="26.13" length="47.80" shape="495.20,823.90 495.20,776.10"/>
    </edge>
    <edge id=":juncMain_5" function="internal">
        <lane id=":juncMain_5_0" index="0" disallow="pedestrian" speed="13.31" length="22.46" shape="495.20,823.90 496.79,812.74 501.57,804.77 503.20,803.80"/>
        <lane id=":juncMain_5_1" index="1" disallow="pedestrian" speed="12.90" length="18.57" shape="498.40,823.90 499.79,812.74 503.20,806.25"/>
    </edge>
    <edge id=":juncMain_7" function="internal">
        <lane id=":juncMain_7_0" index="0" disallow="pedestrian" speed="3.65" length="2.34" shape="498.40,823.90 499.20,822.70 500.00,822.30"/>
    </edge>
    <edge id=":juncMain_40" function="internal">
        <lane id=":juncMain_40_0" index="0" disallow="pedestrian" speed="6.86" length="4.82" shape="483.80,819.04 482.06,817.99 479.30,817.60"/>
    </edge>
    <edge id=":juncMain_41" function="internal">
        <lane id=":juncMain_41_0" index="0" disallow="pedestrian" speed="7.64" length="5.17" shape="483.80,816.57 482.06,814.99 479.30,814.40"/>
    </edge>
    <edge id=":juncMain_42" function="internal">
        <lane id=":juncMain_42_0" index="0" disallow="pedestrian" speed="13.31" length="18.67" shape="503.20,803.80 509.54,799.99 520.70,798.40"/>
    </edge>
    <edge id=":juncMain_43" function="internal">
        <lane id=":juncMain_43_0" index="0" disallow="pedestrian" speed="12.90" length="20.00" shape="503.20,806.25 503.97,804.77 510.94,799.99 520.70,798.40"/>
    </edge>
    <edge id=":juncMain_44" function="internal">
        <lane id=":juncMain_44_0" index="0" disallow="pedestrian" speed="3.65" length="2.34" shape="500.00,822.30 500.80,822.70 501.60,823.90"/>
    </edge>
    <edge id=":juncMain_8" function="internal">
        <lane id=":juncMain_8_0" index="0" disallow="pedestrian" speed="6.86" length="5.34" shape="520.70,817.60 517.94,817.99 515.98,819.18 515.84,819.40"/>
        <lane id=":juncMain_8_1" index="1" disallow="pedestrian" speed="7.64" length="7.67" shape="520.70,817.60 516.54,817.99 513.57,819.18 513.37,819.40"/>
        <lane id=":juncMain_8_2" index="2" disallow="pedestrian" speed="7.64" length="8.30" shape="520.70,814.40 517.94,814.99 515.98,816.77 514.93,819.40"/>
        <lane id=":juncMain_8_3" index="3" disallow="pedestrian" speed="8.29" length="10.72" shape="520.70,814.40 516.54,814.99 513.57,816.77 512.00,819.40"/>
    </edge>
    <edge id=":juncMain_12" function="internal">
        <lane id=":juncMain_12_0" index="0" disallow="pedestrian" speed="26.52" length="41.40" shape="520.70,814.40 479.30,814.40"/>
        <lane id=":juncMain_12_1" index="1" disallow="pedestrian" speed="26.52" length="41.40" shape="520.70,811.20 479.30,811.20"/>
        <lane id=":juncMain_12_2" index="2" disallow="pedestrian" speed="26.52" length="41.40" shape="520.70,808.00 479.30,808.00"/>
        <lane id=":juncMain_12_3" index="3" disallow="pedestrian" speed="26.52" length="41.40" shape="520.70,804.80 479.30,804.80"/>
        <lane id=":juncMain_12_4" index="4" disallow="pedestrian" speed="26.52" length="41.40" shape="520.70,801.60 479.30,801.60"/>
    </edge>
    <edge id=":juncMain_17" function="internal">
        <lane id=":juncMain_17_0" index="0" disallow="pedestrian" speed="13.31" length="11.27" shape="520.70,801.60 509.54,800.01"/>
        <lane id=":juncMain_17_1" index="1" disallow="pedestrian" speed="12.90" length="9.89" shape="520.70,801.60 510.94,800.01"/>
    </edge>
    <edge id=":juncMain_19" function="internal">
        <lane id=":juncMain_19_0" index="0" disallow="pedestrian" speed="3.65" length="2.34" shape="520.70,801.60 519.50,800.80 519.10,800.00"/>
    </edge>
    <edge id=":juncMain_45" function="internal">
        <lane id=":juncMain_45_0" index="0" disallow="pedestrian" speed="6.86" length="4.82" shape="515.84,819.40 514.79,821.14 514.40,823.90"/>
    </edge>
    <edge id=":juncMain_46" function="internal">
        <lane id=":juncMain_46_0" index="0" disallow="pedestrian" speed="7.64" length="5.17" shape="513.37,819.40 511.79,821.14 511.20,823.90"/>
    </edge>
    <edge id=":juncMain_47" function="internal">
        <lane id=":juncMain_47_0" index="0" disallow="pedestrian" speed="7.64" length="4.54" shape="514.93,819.40 514.79,819.74 514.40,823.90"/>
    </edge>
    <edge id=":juncMain_48" function="internal">
        <lane id=":juncMain_48_0" index="0" disallow="pedestrian" speed="8.29" length="4.60" shape="512.00,819.40 511.79,819.74 511.20,823.90"/>
    </edge>
    <edge id=":juncMain_49" function="internal">
        <lane id=":juncMain_49_0" index="0" disallow="pedestrian" speed="13.31" length="29.86" shape="509.54,800.01 501.57,795.23 496.79,787.26 495.20,776.10"/>
    </edge>
    <edge id=":juncMain_50" function="internal">
        <lane id=":juncMain_50_0" index="0" disallow="pedestrian" speed="12.90" length="28.69" shape="510.94,800.01 503.98,795.23 499.79,787.26 498.40,776.10"/>
    </edge>
    <edge id=":juncMain_51" function="internal">
        <lane id=":juncMain_51_0" index="0" disallow="pedestrian" speed="3.65" length="2.34" shape="519.10,800.00 519.50,799.20 520.70,798.40"/>
    </edge>
    <edge id=":juncMain_20" function="internal">
        <lane id=":juncMain_20_0" index="0" disallow="pedestrian" speed="6.86" length="5.34" shape="514.40,776.10 514.79,778.86 515.97,780.83 516.20,780.96"/>
        <lane id=":juncMain_20_1" index="1" disallow="pedestrian" speed="7.64" length="7.67" shape="514.40,776.10 514.79,780.26 515.97,783.23 516.20,783.43"/>
    </edge>
    <edge id=":juncMain_22" function="internal">
        <lane id=":juncMain_22_0" index="0" disallow="pedestrian" speed="26.13" length="47.80" shape="511.20,776.10 511.20,823.90"/>
        <lane id=":juncMain_22_1" index="1" disallow="pedestrian" speed="26.13" length="47.80" shape="508.00,776.10 508.00,823.90"/>
        <lane id=":juncMain_22_2" index="2" disallow="pedestrian" speed="26.13" length="47.80" shape="504.80,776.10 504.80,823.90"/>
    </edge>
    <edge id=":juncMain_25" function="internal">
        <lane id=":juncMain_25_0" index="0" disallow="pedestrian" speed="13.31" length="22.46" shape="504.80,776.10 503.21,787.26 498.43,795.23 496.80,796.20"/>
        <lane id=":juncMain_25_1" index="1" disallow="pedestrian" speed="12.90" length="18.57" shape="501.60,776.10 500.21,787.26 496.80,793.75"/>
    </edge>
    <edge id=":juncMain_27" function="internal">
        <lane id=":juncMain_27_0" index="0" disallow="pedestrian" speed="3.65" length="2.34" shape="501.60,776.10 500.80,777.30 500.00,777.70"/>
    </edge>
    <edge id=":juncMain_52" function="internal">
        <lane id=":juncMain_52_0" index="0" disallow="pedestrian" speed="6.86" length="4.82" shape="516.20,780.96 517.94,782.01 520.70,782.40"/>
    </edge>
    <edge id=":juncMain_53" function="internal">
        <lane id=":juncMain_53_0" index="0" disallow="pedestrian" speed="7.64" length="5.17" shape="516.20,783.43 517.94,785.01 520.70,785.60"/>
    </edge>
    <edge id=":juncMain_54" function="internal">
        <lane id=":juncMain_54_0" index="0" disallow="pedestrian" speed="13.31" length="18.67" shape="496.80,796.20 490.46,800.01 479.30,801.60"/>
    </edge>
    <edge id=":juncMain_55" function="internal">
        <lane id=":juncMain_55_0" index="0" disallow="pedestrian" speed="12.90" length="20.00" shape="496.80,793.75 496.03,795.23 489.06,800.01 479.30,801.60"/>
    </edge>
    <edge id=":juncMain_56" function="internal">
        <lane id=":juncMain_56_0" index="0" disallow="pedestrian" speed="3.65" length="2.34" shape="500.00,777.70 499.20,777.30 498.40,776.10"/>
    </edge>
    <edge id=":juncMain_28" function="internal">
        <lane id=":juncMain_28_0" index="0" disallow="pedestrian" speed="6.86" length="5.34" shape="479.30,782.40 482.06,782.01 484.02,780.82 484.16,780.60"/>
        <lane id=":juncMain_28_1" index="1" disallow="pedestrian" speed="7.64" length="7.67" shape="479.30,782.40 483.46,782.01 486.43,780.82 486.63,780.60"/>
        <lane id=":juncMain_28_2" index="2" disallow="pedestrian" speed="7.64" length="8.30" shape="479.30,785.60 482.06,785.01 484.02,783.23 485.07,780.60"/>
        <lane id=":juncMain_28_3" index="3" disallow="pedestrian" speed="8.29" length="10.72" shape="479.30,785.60 483.46,785.01 486.43,783.23 488.00,780.60"/>
    </edge>
    <edge id=":juncMain_32" function="internal">
        <lane id=":juncMain_32_0" index="0" disallow="pedestrian" speed="26.52" length="41.40" shape="479.30,785.60 520.70,785.60"/>
        <lane id=":juncMain_32_1" index="1" disallow="pedestrian" speed="26.52" length="41.40" shape="479.30,788.80 520.70,788.80"/>
        <lane id=":juncMain_32_2" index="2" disallow="pedestrian" speed="26.52" length="41.40" shape="479.30,792.00 520.70,792.00"/>
        <lane id=":juncMain_32_3" index="3" disallow="pedestrian" speed="26.52" length="41.40" shape="479.30,795.20 520.70,795.20"/>
        <lane id=":juncMain_32_4" index="4" disallow="pedestrian" speed="26.52" length="41.40" shape="479.30,798.40 520.70,798.40"/>
    </edge>
    <edge id=":juncMain_37" function="internal">
        <lane id=":juncMain_37_0" index="0" disallow="pedestrian" speed="13.31" length="11.27" shape="479.30,798.40 490.46,799.99"/>
        <lane id=":juncMain_37_1" index="1" disallow="pedestrian" speed="12.90" length="9.89" shape="479.30,798.40 489.06,799.99"/>
    </edge>
    <edge id=":juncMain_39" function="internal">
        <lane id=":juncMain_39_0" index="0" disallow="pedestrian" speed="3.65" length="2.34" shape="479.30,798.40 480.50,799.20 480.90,800.00"/>
    </edge>
    <edge id=":juncMain_57" function="internal">
        <lane id=":juncMain_57_0" index="0" disallow="pedestrian" speed="6.86" length="4.82" shape="484.16,780.60 485.21,778.86 485.60,776.10"/>
    </edge>
    <edge id=":juncMain_58" function="internal">
        <lane id=":juncMain_58_0" index="0" disallow="pedestrian" speed="7.64" length="5.17" shape="486.63,780.60 488.21,778.86 488.80,776.10"/>
    </edge>
    <edge id=":juncMain_59" function="internal">
        <lane id=":juncMain_59_0" index="0" disallow="pedestrian" speed="7.64" length="4.54" shape="485.07,780.60 485.21,780.26 485.60,776.10"/>
    </edge>
    <edge id=":juncMain_60" function="internal">
        <lane id=":juncMain_60_0" index="0" disallow="pedestrian" speed="8.29" length="4.60" shape="488.00,780.60 488.21,780.26 488.80,776.10"/>
    </edge>
    <edge id=":juncMain_61" function="internal">
        <lane id=":juncMain_61_0" index="0" disallow="pedestrian" speed="13.31" length="29.86" shape="490.46,799.99 498.43,804.77 503.21,812.74 504.80,823.90"/>
    </edge>
    <edge id=":juncMain_62" function="internal">
        <lane id=":juncMain_62_0" index="0" disallow="pedestrian" speed="12.90" length="28.69" shape="489.06,799.99 496.02,804.77 500.21,812.74 501.60,823.90"/>
    </edge>
    <edge id=":juncMain_63" function="internal">
        <lane id=":juncMain_63_0" index="0" disallow="pedestrian" speed="3.65" length="2.34" shape="480.90,800.00 480.50,800.80 479.30,801.60"/>
    </edge>
    <edge id=":juncMain_c0" function="crossing" crossingEdges="edgeN_I edgeN_O">
        <lane id=":juncMain_c0_0" index="0" allow="pedestrian" speed="1.00" length="32.00" width="4.50" shape="516.00,821.65 484.00,821.65"/>
    </edge>
    <edge id=":juncMain_c1" function="crossing" crossingEdges="edgeE_I edgeE_O">
        <lane id=":juncMain_c1_0" index="0" allow="pedestrian" speed="1.00" length="38.40" width="4.50" shape="518.45,780.80 518.45,819.20"/>
    </edge>
    <edge id=":juncMain_c2" function="crossing" crossingEdges="edgeS_I edgeS_O">
        <lane id=":juncMain_c2_0" index="0" allow="pedestrian" speed="1.00" length="32.00" width="4.50" shape="484.00,778.35 516.00,778.35"/>
    </edge>
    <edge id=":juncMain_c3" function="crossing" crossingEdges="edgeW_I edgeW_O">
        <lane id=":juncMain_c3_0" index="0" allow="pedestrian" speed="1.00" length="38.40" width="4.50" shape="481.55,819.20 481.55,780.80"/>
    </edge>
    <edge id=":juncMain_w0" function="walkingarea">
        <lane id=":juncMain_w0_0" index="0" allow="pedestrian" speed="1.00" length="3.82" width="4.50" shape="479.30,819.20 479.30,822.40 480.80,823.90 484.00,823.90 483.87,822.46 483.48,821.29 482.82,820.38 481.91,819.72 480.74,819.33"/>
    </edge>
    <edge id=":juncMain_w1" function="walkingarea">
        <lane id=":juncMain_w1_0" index="0" allow="pedestrian" speed="1.00" length="3.82" width="4.50" shape="516.00,823.90 519.20,823.90 520.70,822.40 520.70,819.20 519.26,819.33 518.09,819.72 517.17,820.38 516.52,821.29 516.13,822.46"/>
    </edge>
    <edge id=":juncMain_w2" function="walkingarea">
        <lane id=":juncMain_w2_0" index="0" allow="pedestrian" speed="1.00" length="3.82" width="4.50" shape="520.70,780.80 520.70,777.60 519.20,776.10 516.00,776.10 516.13,777.54 516.52,778.71 517.17,779.62 518.09,780.28 519.26,780.67"/>
    </edge>
    <edge id=":juncMain_w3" function="walkingarea">
        <lane id=":juncMain_w3_0" index="0" allow="pedestrian" speed="1.00" length="3.82" width="4.50" shape="484.00,776.10 480.80,776.10 479.30,777.60 479.30,780.80 480.74,780.67 481.91,780.28 482.82,779.62 483.48,778.71 483.87,777.54"/>
    </edge>
    <edge id=":juncN_0" function="internal">
        <lane id=":juncN_0_0" index="0" disallow="pedestrian" speed="3.65" length="4.67" shape="501.60,1300.00 500.80,1301.20 500.00,1301.60 499.20,1301.20 498.40,1300.00"/>
    </edge>
    <edge id=":juncN_w0" function="walkingarea">
        <lane id=":juncN_w0_0" index="0" allow="pedestrian" speed="1.00" length="35.20" width="3.20" shape="484.00,1300.00 480.80,1300.00 519.20,1300.00 516.00,1300.00"/>
    </edge>
    <edge id=":juncS_0" function="internal">
        <lane id=":juncS_0_0" index="0" disallow="pedestrian" speed="3.65" length="4.67" shape="498.40,0.00 499.20,-1.20 500.00,-1.60 500.80,-1.20 501.60,0.00"/>
    </edge>
    <edge id=":juncS_w0" function="walkingarea">
        <lane id=":juncS_w0_0" index="0" allow="pedestrian" speed="1.00" length="35.20" width="3.20" shape="516.00,0.00 519.20,0.00 480.80,0.00 484.00,0.00"/>
    </edge>
    <edge id=":juncW_0" function="internal">
        <lane id=":juncW_0_0" index="0" disallow="pedestrian" speed="3.65" length="4.67" shape="0.00,801.60 -1.20,800.80 -1.60,800.00 -1.20,799.20 0.00,798.40"/>
    </edge>
    <edge id=":juncW_w0" function="walkingarea">
        <lane id=":juncW_w0_0" index="0" allow="pedestrian" speed="1.00" length="41.60" width="3.20" shape="0.00,780.80 0.00,777.60 0.00,822.40 0.00,819.20"/>
    </edge>

    <edge id="edgeE_I" from="juncMain" to="juncE" priority="46">
        <lane id="edgeE_I_0" index="0" allow="pedestrian" speed="26.67" length="879.30" shape="520.70,779.20 1400.00,779.20"/>
        <lane id="edgeE_I_1" index="1" disallow="pedestrian" speed="26.67" length="879.30" shape="520.70,782.40 1400.00,782.40"/>
        <lane id="edgeE_I_2" index="2" disallow="pedestrian" speed="26.67" length="879.30" shape="520.70,785.60 1400.00,785.60"/>
        <lane id="edgeE_I_3" index="3" disallow="pedestrian" speed="26.67" length="879.30" shape="520.70,788.80 1400.00,788.80"/>
        <lane id="edgeE_I_4" index="4" disallow="pedestrian" speed="26.67" length="879.30" shape="520.70,792.00 1400.00,792.00"/>
        <lane id="edgeE_I_5" index="5" disallow="pedestrian" speed="26.67" length="879.30" shape="520.70,795.20 1400.00,795.20"/>
        <lane id="edgeE_I_6" index="6" disallow="pedestrian" speed="26.67" length="879.30" shape="520.70,798.40 1400.00,798.40"/>
    </edge>
    <edge id="edgeE_O" from="juncE" to="juncMain" priority="78">
        <lane id="edgeE_O_0" index="0" allow="pedestrian" speed="26.36" length="879.30" shape="1400.00,820.80 520.70,820.80"/>
        <lane id="edgeE_O_1" index="1" disallow="pedestrian" speed="26.36" length="879.30" shape="1400.00,817.60 520.70,817.60"/>
        <lane id="edgeE_O_2" index="2" disallow="pedestrian" speed="26.36" length="879.30" shape="1400.00,814.40 520.70,814.40"/>
        <lane id="edgeE_O_3" index="3" disallow="pedestrian" speed="26.36" length="879.30" shape="1400.00,811.20 520.70,811.20"/>
        <lane id="edgeE_O_4" index="4" disallow="pedestrian" speed="26.36" length="879.30" shape="1400.00,808.00 520.70,808.00"/>
        <lane id="edgeE_O_5" index="5" disallow="pedestrian" speed="26.36" length="879.30" shape="1400.00,804.80 520.70,804.80"/>
        <lane id="edgeE_O_6" index="6" disallow="pedestrian" speed="26.36" length="879.30" shape="1400.00,801.60 520.70,801.60"/>
    </edge>
    <edge id="edgeN_I" from="juncMain" to="juncN" priority="46">
        <lane id="edgeN_I_0" index="0" allow="pedestrian" speed="25.97" length="476.10" shape="517.60,823.90 517.60,1300.00"/>
        <lane id="edgeN_I_1" index="1" disallow="pedestrian" speed="25.97" length="476.10" shape="514.40,823.90 514.40,1300.00"/>
        <lane id="edgeN_I_2" index="2" disallow="pedestrian" speed="25.97" length="476.10" shape="511.20,823.90 511.20,1300.00"/>
        <lane id="edgeN_I_3" index="3" disallow="pedestrian" speed="25.97" length="476.10" shape="508.00,823.90 508.00,1300.00"/>
        <lane id="edgeN_I_4" index="4" disallow="pedestrian" speed="25.97" length="476.10" shape="504.80,823.90 504.80,1300.00"/>
        <lane id="edgeN_I_5" index="5" disallow="pedestrian" speed="25.97" length="476.10" shape="501.60,823.90 501.60,1300.00"/>
    </edge>
    <edge id="edgeN_O" from="juncN" to="juncMain" priority="78">
        <lane id="edgeN_O_0" index="0" allow="pedestrian" speed="26.29" length="476.10" shape="482.40,1300.00 482.40,823.90"/>
        <lane id="edgeN_O_1" index="1" disallow="pedestrian" speed="26.29" length="476.10" shape="485.60,1300.00 485.60,823.90"/>
        <lane id="edgeN_O_2" index="2" disallow="pedestrian" speed="26.29" length="476.10" shape="488.80,1300.00 488.80,823.90"/>
        <lane id="edgeN_O_3" index="3" disallow="pedestrian" speed="26.29" length="476.10" shape="492.00,1300.00 492.00,823.90"/>
        <lane id="edgeN_O_4" index="4" disallow="pedestrian" speed="26.29" length="476.10" shape="495.20,1300.00 495.20,823.90"/>
        <lane id="edgeN_O_5" index="5" disallow="pedestrian" speed="26.29" length="476.10" shape="498.40,1300.00 498.40,823.90"/>
    </edge>
    <edge id="edgeS_I" from="juncMain" to="juncS" priority="46">
        <lane id="edgeS_I_0" index="0" allow="pedestrian" speed="25.97" length="776.10" shape="482.40,776.10 482.40,0.00"/>
        <lane id="edgeS_I_1" index="1" disallow="pedestrian" speed="25.97" length="776.10" shape="485.60,776.10 485.60,0.00"/>
        <lane id="edgeS_I_2" index="2" disallow="pedestrian" speed="25.97" length="776.10" shape="488.80,776.10 488.80,0.00"/>
        <lane id="edgeS_I_3" index="3" disallow="pedestrian" speed="25.97" length="776.10" shape="492.00,776.10 492.00,0.00"/>
        <lane id="edgeS_I_4" index="4" disallow="pedestrian" speed="25.97" length="776.10" shape="495.20,776.10 495.20,0.00"/>
        <lane id="edgeS_I_5" index="5" disallow="pedestrian" speed="25.97" length="776.10" shape="498.40,776.10 498.40,0.00"/>
    </edge>
    <edge id="edgeS_O" from="juncS" to="juncMain" priority="78">
        <lane id="edgeS_O_0" index="0" allow="pedestrian" speed="26.29" length="776.10" shape="517.60,0.00 517.60,776.10"/>
        <lane id="edgeS_O_1" index="1" disallow="pedestrian" speed="26.29" length="776.10" shape="514.40,0.00 514.40,776.10"/>
        <lane id="edgeS_O_2" index="2" disallow="pedestrian" speed="26.29" length="776.10" shape="511.20,0.00 511.20,776.10"/>
        <lane id="edgeS_O_3" index="3" disallow="pedestrian" speed="26.29" length="776.10" shape="508.00,0.00 508.00,776.10"/>
        <lane id="edgeS_O_4" index="4" disallow="pedestrian" speed="26.29" length="776.10" shape="504.80,0.00 504.80,776.10"/>
        <lane id="edgeS_O_5" index="5" disallow="pedestrian" speed="26.29" length="776.10" shape="501.60,0.00 501.60,776.10"/>
    </edge>
    <edge id="edgeW_I" from="juncMain" to="juncW" priority="46">
        <lane id="edgeW_I_0" index="0" allow="pedestrian" speed="26.67" length="479.30" shape="479.30,820.80 0.00,820.80"/>
        <lane id="edgeW_I_1" index="1" disallow="pedestrian" speed="26.67" length="479.30" shape="479.30,817.60 0.00,817.60"/>
        <lane id="edgeW_I_2" index="2" disallow="pedestrian" speed="26.67" length="479.30" shape="479.30,814.40 0.00,814.40"/>
        <lane id="edgeW_I_3" index="3" disallow="pedestrian" speed="26.67" length="479.30" shape="479.30,811.20 0.00,811.20"/>
        <lane id="edgeW_I_4" index="4" disallow="pedestrian" speed="26.67" length="479.30" shape="479.30,808.00 0.00,808.00"/>
        <lane id="edgeW_I_5" index="5" disallow="pedestrian" speed="26.67" length="479.30" shape="479.30,804.80 0.00,804.80"/>
        <lane id="edgeW_I_6" index="6" disallow="pedestrian" speed="26.67" length="479.30" shape="479.30,801.60 0.00,801.60"/>
    </edge>
    <edge id="edgeW_O" from="juncW" to="juncMain" priority="78">
        <lane id="edgeW_O_0" index="0" allow="pedestrian" speed="26.36" length="479.30" shape="0.00,779.20 479.30,779.20"/>
        <lane id="edgeW_O_1" index="1" disallow="pedestrian" speed="26.36" length="479.30" shape="0.00,782.40 479.30,782.40"/>
        <lane id="edgeW_O_2" index="2" disallow="pedestrian" speed="26.36" length="479.30" shape="0.00,785.60 479.30,785.60"/>
        <lane id="edgeW_O_3" index="3" disallow="pedestrian" speed="26.36" length="479.30" shape="0.00,788.80 479.30,788.80"/>
        <lane id="edgeW_O_4" index="4" disallow="pedestrian" speed="26.36" length="479.30" shape="0.00,792.00 479.30,792.00"/>
        <lane id="edgeW_O_5" index="5" disallow="pedestrian" speed="26.36" length="479.30" shape="0.00,795.20 479.30,795.20"/>
        <lane id="edgeW_O_6" index="6" disallow="pedestrian" speed="26.36" length="479.30" shape="0.00,798.40 479.30,798.40"/>
    </edge>

    <tlLogic id="juncMain" type="static" programID="0" offset="0">
        <phase duration="28" state="rrrrrrrrggggGGGGGgggrrrrrrrrggggGGGGGgggGrGr"/>
        <phase duration="5"  state="rrrrrrrrggggGGGGGgggrrrrrrrrggggGGGGGgggrrrr"/>
        <phase duration="6"  state="rrrrrrrryyyyyyyyyyyyrrrrrrrryyyyyyyyyyyyrrrr"/>
        <phase duration="28" state="ggGGGgrrrrrrrrrrrrrrggGGGgrrrrrrrrrrrrrrrGrG"/>
        <phase duration="5"  state="ggGGGgrrrrrrrrrrrrrrggGGGgrrrrrrrrrrrrrrrrrr"/>
        <phase duration="6"  state="yyyyyyrrrrrrrrrrrrrryyyyyyrrrrrrrrrrrrrrrrrr"/>
        <phase duration="6"  state="rrrrrrGGrrrrrrrrrrrrrrrrrrGGrrrrrrrrrrrrrrrr"/>
        <phase duration="6"  state="rrrrrryyrrrrrrrrrrrrrrrrrryyrrrrrrrrrrrrrrrr"/>
    </tlLogic>

    <junction id="juncE" type="priority" x="1400.00" y="800.00" incLanes="edgeE_I_0 edgeE_I_1 edgeE_I_2 edgeE_I_3 edgeE_I_4 edgeE_I_5 edgeE_I_6" intLanes=":juncE_0_0" shape="1400.00,800.00 1400.00,777.60 1400.00,800.00">
        <request index="0" response="0" foes="0" cont="0"/>
    </junction>
    <junction id="juncMain" type="traffic_light" x="500.00" y="800.00" incLanes="edgeN_O_0 edgeN_O_1 edgeN_O_2 edgeN_O_3 edgeN_O_4 edgeN_O_5 edgeE_O_0 edgeE_O_1 edgeE_O_2 edgeE_O_3 edgeE_O_4 edgeE_O_5 edgeE_O_6 edgeS_O_0 edgeS_O_1 edgeS_O_2 edgeS_O_3 edgeS_O_4 edgeS_O_5 edgeW_O_0 edgeW_O_1 edgeW_O_2 edgeW_O_3 edgeW_O_4 edgeW_O_5 edgeW_O_6 :juncMain_w1_0 :juncMain_w2_0 :juncMain_w3_0 :juncMain_w0_0" intLanes=":juncMain_40_0 :juncMain_41_0 :juncMain_2_0 :juncMain_2_1 :juncMain_2_2 :juncMain_42_0 :juncMain_43_0 :juncMain_44_0 :juncMain_45_0 :juncMain_46_0 :juncMain_47_0 :juncMain_48_0 :juncMain_12_0 :juncMain_12_1 :juncMain_12_2 :juncMain_12_3 :juncMain_12_4 :juncMain_49_0 :juncMain_50_0 :juncMain_51_0 :juncMain_52_0 :juncMain_53_0 :juncMain_22_0 :juncMain_22_1 :juncMain_22_2 :juncMain_54_0 :juncMain_55_0 :juncMain_56_0 :juncMain_57_0 :juncMain_58_0 :juncMain_59_0 :juncMain_60_0 :juncMain_32_0 :juncMain_32_1 :juncMain_32_2 :juncMain_32_3 :juncMain_32_4 :juncMain_61_0 :juncMain_62_0 :juncMain_63_0 :juncMain_c0_0 :juncMain_c1_0 :juncMain_c2_0 :juncMain_c3_0" shape="480.80,823.90 519.20,823.90 519.37,823.07 519.58,822.77 519.87,822.57 520.24,822.44 520.70,822.40 520.70,777.60 519.87,777.43 519.58,777.23 519.37,776.93 519.24,776.56 519.20,776.10 480.80,776.10 480.63,776.93 480.42,777.23 480.13,777.43 479.76,777.56 479.30,777.60 479.30,822.40 480.13,822.57 480.42,822.77 480.63,823.07 480.76,823.44">
        <request index="0"  response="10010000000000000000000000011111000000000000" foes="10010000000000000000000000011111000000000000" cont="1"/>
        <request index="1"  response="10010000000000000000000000011111000000000000" foes="10010000000000000000000000011111000000000000" cont="1"/>
        <request index="2"  response="01010111111111110000000001111111000000000000" foes="01010111111111110110000001111111000000000000" cont="0"/>
        <request index="3"  response="01010111111111110000000001111111000000000000" foes="01010111111111110110000001111111000000000000" cont="0"/>
        <request index="4"  response="01010111111111110000000001111111000000000000" foes="01010111111111110110000001111111000000000000" cont="0"/>
        <request index="5"  response="00110111111100000001110001111111000001000000" foes="00110111111100000001110011111111000001000000" cont="1"/>
        <request index="6"  response="00110111111100000001110001111111000000000000" foes="00110111111100000001110011111111000000100000" cont="1"/>
        <request index="7"  response="00010110000000000000000000000000000000000000" foes="00010110000000000000000000000000000000000000" cont="1"/>
        <request index="8"  response="00110000000000000000000000000000000000000000" foes="00110000000000000001110000000000010000000000" cont="1"/>
        <request index="9"  response="00110000000000000000000000000000000000000000" foes="00110000000000000001110000000000100000000000" cont="1"/>
        <request index="10" response="00110000000000000000000000000000000100000000" foes="00110000000000000001110000000000000100000000" cont="1"/>
        <request index="11" response="00110000000000000000000000000000001000000000" foes="00110000000000000001110000000000001000000000" cont="1"/>
        <request index="12" response="10100000000000000110000000000000000001100011" foes="10101110000000000111110000000000000001111111" cont="0"/>
        <request index="13" response="10100000000000000110000000000000000001100011" foes="10101110000000000111110000000000000001111111" cont="0"/>
        <request index="14" response="10100000000000000110000000000000000001100011" foes="10101110000000000111110000000000000001111111" cont="0"/>
        <request index="15" response="10100000000000000110000000000000000001100011" foes="10101110000000000111110000000000000001111111" cont="0"/>
        <request index="16" response="10100000000000000110000000000000000001100011" foes="10101110000000000111110000000000000001111111" cont="0"/>
        <request index="17" response="01100001111100000110000000000000000001100000" foes="01100001111100001111110000000000000001111100" cont="1"/>
        <request index="18" response="01100001111100000110000000000000000001100000" foes="01100001111100001111110000000000000001111100" cont="1"/>
        <request index="19" response="00100001111100000000000000000000000001100000" foes="00100001111100000000000000000000000001100000" cont="1"/>
        <request index="20" response="01100001111100000000000000000000000000000000" foes="01100001111100000000000000000000000000000000" cont="1"/>
        <request index="21" response="01100001111100000000000000000000000000000000" foes="01100001111100000000000000000000000000000000" cont="1"/>
        <request index="22" response="01010111111100000000000001111111111100000000" foes="01010111111100000000000001111111111101100000" cont="0"/>