<?xml version="1.0" encoding="UTF-8"?>

<!-- generated on 2021-10-12 04:08:25 by Eclipse SUMO netconvert Version 1.10.0
<configuration xmlns:xsi="http://www.w3.org/2001/XMLSchema-instance" xsi:noNamespaceSchemaLocation="http://sumo.dlr.de/xsd/netconvertConfiguration.xsd">

    <input>
        <node-files value="data/cross.nod.xml"/>
        <edge-files value="data/cross.edg.xml"/>
        <connection-files value="data/cross.con.xml"/>
    </input>

    <output>
        <output-file value="data/cross.net.xml"/>
    </output>

    <report>
        <aggregate-warnings value="5"/>
    </report>

</configuration>
-->

<net version="1.9" junctionCornerDetail="5" limitTurnSpeed="5.50" xmlns:xsi="http://www.w3.org/2001/XMLSchema-instance" xsi:noNamespaceSchemaLocation="http://sumo.dlr.de/xsd/net_file.xsd">

    <location netOffset="500.00,500.00" convBoundary="0.00,0.00,1000.00,1000.00" origBoundary="-500.00,-500.00,500.00,500.00" projParameter="!"/>

    <edge id=":juncE_0" function="internal">
        <lane id=":juncE_0_0" index="0" speed="3.65" length="4.67" shape="1000.00,498.40 1001.20,499.20 1001.60,500.00 1001.20,500.80 1000.00,501.60"/>
    </edge>
    <edge id=":juncMain_0" function="internal">
        <lane id=":juncMain_0_0" index="0" speed="6.51" length="9.03" shape="488.80,516.80 488.45,514.35 487.40,512.60 485.65,511.55 483.20,511.20"/>
        <lane id=":juncMain_0_1" index="1" speed="7.33" length="11.73" shape="488.80,516.80 488.45,512.95 487.40,510.20 485.65,508.55 483.20,508.00"/>
    </edge>
    <edge id=":juncMain_2" function="internal">
        <lane id=":juncMain_2_0" index="0" speed="15.00" length="33.60" shape="488.80,516.80 488.80,483.20"/>
        <lane id=":juncMain_2_1" index="1" speed="15.00" length="33.60" shape="492.00,516.80 492.00,483.20"/>
        <lane id=":juncMain_2_2" index="2" speed="15.00" length="33.60" shape="495.20,516.80 495.20,483.20"/>
    </edge>
    <edge id=":juncMain_5" function="internal">
        <lane id=":juncMain_5_0" index="0" speed="12.28" length="20.45" shape="495.20,516.80 496.55,507.35 500.60,500.60 503.20,499.04"/>
        <lane id=":juncMain_5_1" index="1" speed="11.84" length="18.12" shape="495.20,516.80 496.55,508.75 500.60,503.00 503.20,501.67"/>
        <lane id=":juncMain_5_2" index="2" speed="11.84" length="17.34" shape="498.40,516.80 499.55,507.35 503.00,500.60 503.20,500.46"/>
        <lane id=":juncMain_5_3" index="3" speed="11.36" length="15.07" shape="498.40,516.80 499.55,508.75 503.00,503.00 503.20,502.88"/>
    </edge>
    <edge id=":juncMain_9" function="internal">
        <lane id=":juncMain_9_0" index="0" speed="3.65" length="2.34" shape="498.40,516.80 499.20,515.60 500.00,515.20"/>
    </edge>
    <edge id=":juncMain_40" function="internal">
        <lane id=":juncMain_40_0" index="0" speed="12.28" length="14.39" shape="503.20,499.04 507.35,496.55 516.80,495.20"/>
    </edge>
    <edge id=":juncMain_41" function="internal">
        <lane id=":juncMain_41_0" index="0" speed="11.84" length="14.18" shape="503.20,501.67 507.35,499.55 516.80,498.40"/>
    </edge>
    <edge id=":juncMain_42" function="internal">
        <lane id=":juncMain_42_0" index="0" speed="11.84" length="14.95" shape="503.20,500.46 508.75,496.55 516.80,495.20"/>
    </edge>
    <edge id=":juncMain_43" function="internal">
        <lane id=":juncMain_43_0" index="0" speed="11.36" length="14.60" shape="503.20,502.88 508.75,499.55 516.80,498.40"/>
    </edge>
    <edge id=":juncMain_44" function="internal">
        <lane id=":juncMain_44_0" index="0" speed="3.65" length="2.34" shape="500.00,515.20 500.80,515.60 501.60,516.80"/>
    </edge>
    <edge id=":juncMain_10" function="internal">
        <lane id=":juncMain_10_0" index="0" speed="6.51" length="9.03" shape="516.80,511.20 514.35,511.55 512.60,512.60 511.55,514.35 511.20,516.80"/>
        <lane id=":juncMain_10_1" index="1" speed="7.33" length="11.73" shape="516.80,511.20 512.95,511.55 510.20,512.60 508.55,514.35 508.00,516.80"/>
    </edge>
    <edge id=":juncMain_12" function="internal">
        <lane id=":juncMain_12_0" index="0" speed="15.00" length="33.60" shape="516.80,511.20 483.20,511.20"/>
        <lane id=":juncMain_12_1" index="1" speed="15.00" length="33.60" shape="516.80,508.00 483.20,508.00"/>
        <lane id=":juncMain_12_2" index="2" speed="15.00" length="33.60" shape="516.80,504.80 483.20,504.80"/>
    </edge>
    <edge id=":juncMain_15" function="internal">
        <lane id=":juncMain_15_0" index="0" speed="12.28" length="20.45" shape="516.80,504.80 507.35,503.45 500.60,499.40 499.04,496.80"/>
        <lane id=":juncMain_15_1" index="1" speed="11.84" length="18.12" shape="516.80,504.80 508.75,503.45 503.00,499.40 501.67,496.80"/>
        <lane id=":juncMain_15_2" index="2" speed="11.84" length="17.34" shape="516.80,501.60 507.35,500.45 500.60,497.00 500.46,496.80"/>
        <lane id=":juncMain_15_3" index="3" speed="11.36" length="15.07" shape="516.80,501.60 508.75,500.45 503.00,497.00 502.88,496.80"/>
    </edge>
    <edge id=":juncMain_19" function="internal">
        <lane id=":juncMain_19_0" index="0" speed="3.65" length="2.34" shape="516.80,501.60 515.60,500.80 515.20,500.00"/>
    </edge>
    <edge id=":juncMain_45" function="internal">
        <lane id=":juncMain_45_0" index="0" speed="12.28" length="14.39" shape="499.04,496.80 496.55,492.65 495.20,483.20"/>
    </edge>
    <edge id=":juncMain_46" function="internal">
        <lane id=":juncMain_46_0" index="0" speed="11.84" length="14.18" shape="501.67,496.80 499.55,492.65 498.40,483.20"/>
    </edge>
    <edge id=":juncMain_47" function="internal">
        <lane id=":juncMain_47_0" index="0" speed="11.84" length="14.95" shape="500.46,496.80 496.55,491.25 495.20,483.20"/>
    </edge>
    <edge id=":juncMain_48" function="internal">
        <lane id=":juncMain_48_0" index="0" speed="11.36" length="14.60" shape="502.88,496.80 499.55,491.25 498.40,483.20"/>
    </edge>
    <edge id=":juncMain_49" function="internal">
        <lane id=":juncMain_49_0" index="0" speed="3.65" length="2.34" shape="515.20,500.00 515.60,499.20 516.80,498.40"/>
    </edge>
    <edge id=":juncMain_20" function="internal">
        <lane id=":juncMain_20_0" index="0" speed="6.51" length="9.03" shape="511.20,483.20 511.55,485.65 512.60,487.40 514.35,488.45 516.80,488.80"/>
        <lane id=":juncMain_20_1" index="1" speed="7.33" length="11.73" shape="511.20,483.20 511.55,487.05 512.60,489.80 514.35,491.45 516.80,492.00"/>
    </edge>
    <edge id=":juncMain_22" function="internal">
        <lane id=":juncMain_22_0" index="0" speed="15.00" length="33.60" shape="511.20,483.20 511.20,516.80"/>
        <lane id=":juncMain_22_1" index="1" speed="15.00" length="33.60" shape="508.00,483.20 508.00,516.80"/>
        <lane id=":juncMain_22_2" index="2" speed="15.00" length="33.60" shape="504.80,483.20 504.80,516.80"/>
    </edge>
    <edge id=":juncMain_25" function="internal">
        <lane id=":juncMain_25_0" index="0" speed="12.28" length="20.45" shape="504.80,483.20 503.45,492.65 499.40,499.40 496.80,500.96"/>
        <lane id=":juncMain_25_1" index="1" speed="11.84" length="18.12" shape="504.80,483.20 503.45,491.25 499.40,497.00 496.80,498.33"/>
        <lane id=":juncMain_25_2" index="2" speed="11.84" length="17.34" shape="501.60,483.20 500.45,492.65 497.00,499.40 496.80,499.54"/>
        <lane id=":juncMain_25_3" index="3" speed="11.36" length="15.07" shape="501.60,483.20 500.45,491.25 497.00,497.00 496.80,497.12"/>
    </edge>
    <edge id=":juncMain_29" function="internal">
        <lane id=":juncMain_29_0" index="0" speed="3.65" length="2.34" shape="501.60,483.20 500.80,484.40 500.00,484.80"/>
    </edge>
    <edge id=":juncMain_50" function="internal">
        <lane id=":juncMain_50_0" index="0" speed="12.28" length="14.39" shape="496.80,500.96 492.65,503.45 483.20,504.80"/>
    </edge>
    <edge id=":juncMain_51" function="internal">
        <lane id=":juncMain_51_0" index="0" speed="11.84" length="14.18" shape="496.80,498.33 492.65,500.45 483.20,501.60"/>
    </edge>
    <edge id=":juncMain_52" function="internal">
        <lane id=":juncMain_52_0" index="0" speed="11.84" length="14.95" shape="496.80,499.54 491.25,503.45 483.20,504.80"/>
    </edge>
    <edge id=":juncMain_53" function="internal">
        <lane id=":juncMain_53_0" index="0" speed="11.36" length="14.60" shape="496.80,497.12 491.25,500.45 483.20,501.60"/>
    </edge>
    <edge id=":juncMain_54" function="internal">
        <lane id=":juncMain_54_0" index="0" speed="3.65" length="2.34" shape="500.00,484.80 499.20,484.40 498.40,483.20"/>
    </edge>
    <edge id=":juncMain_30" function="internal">
        <lane id=":juncMain_30_0" index="0" speed="6.51" length="9.03" shape="483.20,488.80 485.65,488.45 487.40,487.40 488.45,485.65 488.80,483.20"/>
        <lane id=":juncMain_30_1" index="1" speed="7.33" length="11.73" shape="483.20,488.80 487.05,488.45 489.80,487.40 491.45,485.65 492.00,483.20"/>
    </edge>
    <edge id=":juncMain_32" function="internal">
        <lane id=":juncMain_32_0" index="0" speed="15.00" length="33.60" shape="483.20,488.80 516.80,488.80"/>
        <lane id=":juncMain_32_1" index="1" speed="15.00" length="33.60" shape="483.20,492.00 516.80,492.00"/>
        <lane id=":juncMain_32_2" index="2" speed="15.00" length="33.60" shape="483.20,495.20 516.80,495.20"/>
    </edge>
    <edge id=":juncMain_35" function="internal">
        <lane id=":juncMain_35_0" index="0" speed="12.28" length="20.45" shape="483.20,495.20 492.65,496.55 499.40,500.60 500.96,503.20"/>
        <lane id=":juncMain_35_1" index="1" speed="11.84" length="18.12" shape="483.20,495.20 491.25,496.55 497.00,500.60 498.33,503.20"/>
        <lane id=":juncMain_35_2" index="2" speed="11.84" length="17.34" shape="483.20,498.40 492.65,499.55 499.40,503.00 499.54,503.20"/>
        <lane id=":juncMain_35_3" index="3" speed="11.36" length="15.07" shape="483.20,498.40 491.25,499.55 497.00,503.00 497.12,503.20"/>
    </edge>
    <edge id=":juncMain_39" function="internal">
        <lane id=":juncMain_39_0" index="0" speed="3.65" length="2.34" shape="483.20,498.40 484.40,499.20 484.80,500.00"/>
    </edge>
    <edge id=":juncMain_55" function="internal">
        <lane id=":juncMain_55_0" index="0" speed="12.28" length="14.39" shape="500.96,503.20 503.45,507.35 504.80,516.80"/>
    </edge>
    <edge id=":juncMain_56" function="internal">
        <lane id=":juncMain_56_0" index="0" speed="11.84" length="14.18" shape="498.33,503.20 500.45,507.35 501.60,516.80"/>
    </edge>
    <edge id=":juncMain_57" function="internal">
        <lane id=":juncMain_57_0" index="0" speed="11.84" length="14.95" shape="499.54,503.20 503.45,508.75 504.80,516.80"/>
    </edge>
    <edge id=":juncMain_58" function="internal">
        <lane id=":juncMain_58_0" index="0" speed="11.36" length="14.60" shape="497.12,503.20 500.45,508.75 501.60,516.80"/>
    </edge>
    <edge id=":juncMain_59" function="internal">
        <lane id=":juncMain_59_0" index="0" speed="3.65" length="2.34" shape="484.80,500.00 484.40,500.80 483.20,501.60"/>
    </edge>
    <edge id=":juncN_0" function="internal">
        <lane id=":juncN_0_0" index="0" speed="3.65" length="4.67" shape="501.60,1000.00 500.80,1001.20 500.00,1001.60 499.20,1001.20 498.40,1000.00"/>
    </edge>
    <edge id=":juncS_0" function="internal">
        <lane id=":juncS_0_0" index="0" speed="3.65" length="4.67" shape="498.40,0.00 499.20,-1.20 500.00,-1.60 500.80,-1.20 501.60,0.00"/>
    </edge>
    <edge id=":juncW_0" function="internal">
        <lane id=":juncW_0_0" index="0" speed="3.65" length="4.67" shape="0.00,501.60 -1.20,500.80 -1.60,500.00 -1.20,499.20 0.00,498.40"/>
    </edge>

    <edge id="edgeE_I" from="juncMain" to="juncE" priority="46">
        <lane id="edgeE_I_0" index="0" speed="11.00" length="483.20" shape="516.80,488.80 1000.00,488.80"/>
        <lane id="edgeE_I_1" index="1" speed="11.00" length="483.20" shape="516.80,492.00 1000.00,492.00"/>
        <lane id="edgeE_I_2" index="2" speed="11.00" length="483.20" shape="516.80,495.20 1000.00,495.20"/>
        <lane id="edgeE_I_3" index="3" speed="11.00" length="483.20" shape="516.80,498.40 1000.00,498.40"/>
    </edge>
    <edge id="edgeE_O" from="juncE" to="juncMain" priority="78">
        <lane id="edgeE_O_0" index="0" speed="19.00" length="483.20" shape="1000.00,511.20 516.80,511.20"/>
        <lane id="edgeE_O_1" index="1" speed="19.00" length="483.20" shape="1000.00,508.00 516.80,508.00"/>
        <lane id="edgeE_O_2" index="2" speed="19.00" length="483.20" shape="1000.00,504.80 516.80,504.80"/>
        <lane id="edgeE_O_3" index="3" speed="19.00" length="483.20" shape="1000.00,501.60 516.80,501.60"/>
    </edge>
    <edge id="edgeN_I" from="juncMain" to="juncN" priority="46">
        <lane id="edgeN_I_0" index="0" speed="11.00" length="483.20" shape="511.20,516.80 511.20,1000.00"/>
        <lane id="edgeN_I_1" index="1" speed="11.00" length="483.20" shape="508.00,516.80 508.00,1000.00"/>
        <lane id="edgeN_I_2" index="2" speed="11.00" length="483.20" shape="504.80,516.80 504.80,1000.00"/>
        <lane id="edgeN_I_3" index="3" speed="11.00" length="483.20" shape="501.60,516.80 501.60,1000.00"/>
    </edge>
    <edge id="edgeN_O" from="juncN" to="juncMain" priority="78">
        <lane id="edgeN_O_0" index="0" speed="19.00" length="483.20" shape="488.80,1000.00 488.80,516.80"/>
        <lane id="edgeN_O_1" index="1" speed="19.00" length="483.20" shape="492.00,1000.00 492.00,516.80"/>
        <lane id="edgeN_O_2" index="2" speed="19.00" length="483.20" shape="495.20,1000.00 495.20,516.80"/>
        <lane id="edgeN_O_3" index="3" speed="19.00" length="483.20" shape="498.40,1000.00 498.40,516.80"/>
    </edge>
    <edge id="edgeS_I" from="juncMain" to="juncS" priority="46">
        <lane id="edgeS_I_0" index="0" speed="11.00" length="483.20" shape="488.80,483.20 488.80,0.00"/>
        <lane id="edgeS_I_1" index="1" speed="11.00" length="483.20" shape="492.00,483.20 492.00,0.00"/>
        <lane id="edgeS_I_2" index="2" speed="11.00" length="483.20" shape="495.20,483.20 495.20,0.00"/>
        <lane id="edgeS_I_3" index="3" speed="11.00" length="483.20" shape="498.40,483.20 498.40,0.00"/>
    </edge>
    <edge id="edgeS_O" from="juncS" to="juncMain" priority="78">
        <lane id="edgeS_O_0" index="0" speed="19.00" length="483.20" shape="511.20,0.00 511.20,483.20"/>
        <lane id="edgeS_O_1" index="1" speed="19.00" length="483.20" shape="508.00,0.00 508.00,483.20"/>
        <lane id="edgeS_O_2" index="2" speed="19.00" length="483.20" shape="504.80,0.00 504.80,483.20"/>
        <lane id="edgeS_O_3" index="3" speed="19.00" length="483.20" shape="501.60,0.00 501.60,483.20"/>
    </edge>
    <edge id="edgeW_I" from="juncMain" to="juncW" priority="46">
        <lane id="edgeW_I_0" index="0" speed="11.00" length="483.20" shape="483.20,511.20 0.00,511.20"/>
        <lane id="edgeW_I_1" index="1" speed="11.00" length="483.20" shape="483.20,508.00 0.00,508.00"/>
        <lane id="edgeW_I_2" index="2" speed="11.00" length="483.20" shape="483.20,504.80 0.00,504.80"/>
        <lane id="edgeW_I_3" index="3" speed="11.00" length="483.20" shape="483.20,501.60 0.00,501.60"/>
    </edge>
    <edge id="edgeW_O" from="juncW" to="juncMain" priority="78">
        <lane id="edgeW_O_0" index="0" speed="19.00" length="483.20" shape="0.00,488.80 483.20,488.80"/>
        <lane id="edgeW_O_1" index="1" speed="19.00" length="483.20" shape="0.00,492.00 483.20,492.00"/>
        <lane id="edgeW_O_2" index="2" speed="19.00" length="483.20" shape="0.00,495.20 483.20,495.20"/>
        <lane id="edgeW_O_3" index="3" speed="19.00" length="483.20" shape="0.00,498.40 483.20,498.40"/>
    </edge>

    <tlLogic id="juncMain" type="static" programID="0" offset="0">
        <phase duration="31" state="GGGGGgggggrrrrrrrrrrGGGGGgggggrrrrrrrrrr"/>
        <phase duration="4"  state="yyyyyyygggrrrrrrrrrryyyyyyygggrrrrrrrrrr"/>
        <phase duration="6"  state="rrrrrrrGGGrrrrrrrrrrrrrrrrrGGGrrrrrrrrrr"/>
        <phase duration="4"  state="rrrrrrryyyrrrrrrrrrrrrrrrrryyyrrrrrrrrrr"/>
        <phase duration="31" state="rrrrrrrrrrGGGGGgggggrrrrrrrrrrGGGGGggggg"/>
        <phase duration="4"  state="rrrrrrrrrryyyyyyygggrrrrrrrrrryyyyyyyggg"/>
        <phase duration="6"  state="rrrrrrrrrrrrrrrrrGGGrrrrrrrrrrrrrrrrrGGG"/>
        <phase duration="4"  state="rrrrrrrrrrrrrrrrryyyrrrrrrrrrrrrrrrrryyy"/>
    </tlLogic>

    <junction id="juncE" type="priority" x="1000.00" y="500.00" incLanes="edgeE_I_0 edgeE_I_1 edgeE_I_2 edgeE_I_3" intLanes=":juncE_0_0" shape="1000.00,500.00 1000.00,487.20 1000.00,500.00">
        <request index="0" response="0" foes="0" cont="0"/>
    </junction>
    <junction id="juncMain" type="traffic_light" x="500.00" y="500.00" incLanes="edgeN_O_0 edgeN_O_1 edgeN_O_2 edgeN_O_3 edgeE_O_0 edgeE_O_1 edgeE_O_2 edgeE_O_3 edgeS_O_0 edgeS_O_1 edgeS_O_2 edgeS_O_3 edgeW_O_0 edgeW_O_1 edgeW_O_2 edgeW_O_3" intLanes=":juncMain_0_0 :juncMain_0_1 :juncMain_2_0 :juncMain_2_1 :juncMain_2_2 :juncMain_40_0 :juncMain_41_0 :juncMain_42_0 :juncMain_43_0 :juncMain_44_0 :juncMain_10_0 :juncMain_10_1 :juncMain_12_0 :juncMain_12_1 :juncMain_12_2 :juncMain_45_0 :juncMain_46_0 :juncMain_47_0 :juncMain_48_0 :juncMain_49_0 :juncMain_20_0 :juncMain_20_1 :juncMain_22_0 :juncMain_22_1 :juncMain_22_2 :juncMain_50_0 :juncMain_51_0 :juncMain_52_0 :juncMain_53_0 :juncMain_54_0 :juncMain_30_0 :juncMain_30_1 :juncMain_32_0 :juncMain_32_1 :juncMain_32_2 :juncMain_55_0 :juncMain_56_0 :juncMain_57_0 :juncMain_58_0 :juncMain_59_0" shape="487.20,516.80 512.80,516.80 513.24,514.58 513.80,513.80 514.58,513.24 515.58,512.91 516.80,512.80 516.80,487.20 514.58,486.76 513.80,486.20 513.24,485.42 512.91,484.42 512.80,483.20 487.20,483.20 486.76,485.42 486.20,486.20 485.42,486.76 484.42,487.09 483.20,487.20 483.20,512.80 485.42,513.24 486.20,513.80 486.76,514.58 487.09,515.58">
        <request index="0"  response="0000000000000000000000000000000000000000" foes="0000000000000000000000000111000000000000" cont="0"/>
        <request index="1"  response="0000000000000000000000000000000000000000" foes="0000000000000000000000000111000000000000" cont="0"/>
        <request index="2"  response="0111100000000000000001111000000000000000" foes="0111111111011110000001111111000000000000" cont="0"/>
        <request index="3"  response="0111100000000000000001111000000000000000" foes="0111111111011110000001111111000000000000" cont="0"/>
        <request index="4"  response="0111100000000000000001111000000000000000" foes="0111111111011110000001111111000000000000" cont="0"/>
        <request index="5"  response="0111100000000001110001111000000010000000" foes="0111111100000001110011111111000010000000" cont="1"/>
        <request index="6"  response="0111100000000001110001111000000100000000" foes="0111111100000001110011111111000100000000" cont="1"/>
        <request index="7"  response="0111100000000001110001111000000000000000" foes="0111111100000001110011111111000000100000" cont="1"/>
        <request index="8"  response="0111100000000001110001111000000000000000" foes="0111111100000001110011111111000001000000" cont="1"/>
        <request index="9"  response="0111100000000000000000000000000000000000" foes="0111100000000000000000000000000000000000" cont="1"/>
        <request index="10" response="0000000000000001110000000000000000000000" foes="0000000000000001110000000000000000000000" cont="0"/>
        <request index="11" response="0000000000000001110000000000000000000000" foes="0000000000000001110000000000000000000000" cont="0"/>
        <request index="12" response="0000000000011111110000000000000111111111" foes="0111100000011111110000000000000111111111" cont="0"/>
        <request index="13" response="0000000000011111110000000000000111111111" foes="0111100000011111110000000000000111111111" cont="0"/>
        <request index="14" response="0000000000011111110000000000000111111111" foes="0111100000011111110000000000000111111111" cont="0"/>
        <request index="15" response="0000011100011111110000100000000111111100" foes="0000011100111111110000100000000111111100" cont="1"/>
        <request index="16" response="0000011100011111110001000000000111111100" foes="0000011100111111110001000000000111111100" cont="1"/>
        <request index="17" response="0000011100011111110000000000000111111100" foes="0000011100111111110000001000000111111100" cont="1"/>
        <request index="18" response="0000011100011111110000000000000111111100" foes="0000011100111111110000010000000111111100" cont="1"/>
        <request index="19" response="0000000000000000000000000000000111100000" foes="0000000000000000000000000000000111100000" cont="1"/>
        <request index="20" response="0000000000000000000000000000000000000000" foes="0000011100000000000000000000000000000000" cont="0"/>
        <request index="21" response="0000000000000000000000000000000000000000" foes="0000011100000000000000000000000000000000" cont="0"/>
        <request index="22" response="0111100000000000000001111000000000000000" foes="0111111100000000000001111111110111100000" cont="0"/>
        <request index="23" response="0111100000000000000001111000000000000000" foes="0111111100000000000001111111110111100000" cont="0"/>
        <request index="24" response="0111100000000000000001111000000000000000" foes="0111111100000000000001111111110111100000" cont="0"/>
        <request index="25" response="0111100000001000000001111000000000011100" foes="1111111100001000000001111111000000011100" cont="1"/>
        <request index="26" response="0111100000010000000001111000000000011100" foes="1111111100010000000001111111000000011100" cont="1"/>
        <request index="27" response="0111100000000000000001111000000000011100" foes="1111111100000010000001111111000000011100" cont="1"/>
        <request index="28" response="0111100000000000000001111000000000011100" foes="1111111100000100000001111111000000011100" cont="1"/>
        <request index="29" response="0000000000000000000001111000000000000000" foes="0000000000000000000001111000000000000000" cont="1"/>
        <request index="30" response="0000000000000000000000000000000000011100" foes="0000000000000000000000000000000000011100" cont="0"/>
        <request index="31" response="0000000000000000000000000000000000011100" foes="0000000000000000000000000000000000011100" cont="0"/>
        <request index="32" response="0000000000011111111100000000000111111100" foes="0000000000011111111101111000000111111100" cont="0"/>
        <request index="33" response="0000000000011111111100000000000111111100" foes="0000000000011111111101111000000111111100" cont="0"/>
        <request index="34" response="0000000000011111111100000000000111111100" foes="0000000000011111111101111000000111111100" cont="0"/>
        <request index="35" response="0010000000011111110000000111000111111100" foes="0010000000011111110000000111001111111100" cont="1"/>
        <request index="36" response="0100000000011111110000000111000111111100" foes="0100000000011111110000000111001111111100" cont="1"/>
        <request index="37" response="0000000000011111110000000111000111111100" foes="0000100000011111110000000111001111111100" cont="1"/>
        <request index="38" response="0000000000011111110000000111000111111100" foes="0001000000011111110000000111001111111100" cont="1"/>
        <request index="39" response="0000000000011110000000000000000000000000" foes="0000000000011110000000000000000000000000" cont="1"/>
    </junction>
    <junction id="juncN" type="priority" x="500.00" y="1000.00" incLanes="edgeN_I_0 edgeN_I_1 edgeN_I_2 edgeN_I_3" intLanes=":juncN_0_0" shape="500.00,1000.00 512.80,1000.00 500.00,1000.00">
        <request index="0" response="0" foes="0" cont="0"/>
    </junction>
    <junction id="juncS" type="priority" x="500.00" y="0.00" incLanes="edgeS_I_0 edgeS_I_1 edgeS_I_2 edgeS_I_3" intLanes=":juncS_0_0" shape="500.00,0.00 487.20,0.00 500.00,0.00">
        <request index="0" response="0" foes="0" cont="0"/>
    </junction>
    <junction id="juncW" type="priority" x="0.00" y="500.00" incLanes="edgeW_I_0 edgeW_I_1 edgeW_I_2 edgeW_I_3" intLanes=":juncW_0_0" shape="0.00,500.00 0.00,512.80 0.00,500.00">
        <request index="0" response="0" foes="0" cont="0"/>
    </junction>

    <junction id=":juncMain_40_0" type="internal" x="503.20" y="499.04" incLanes=":juncMain_5_0 edgeS_O_0 edgeS_O_1 edgeS_O_2" intLanes=":juncMain_5_2 :juncMain_12_0 :juncMain_12_1 :juncMain_12_2 :juncMain_15_0 :juncMain_15_1 :juncMain_15_2 :juncMain_15_3 :juncMain_19_0 :juncMain_20_0 :juncMain_20_1 :juncMain_22_0 :juncMain_22_1 :juncMain_22_2 :juncMain_32_0 :juncMain_32_1 :juncMain_32_2 :juncMain_35_0 :juncMain_35_1 :juncMain_35_2 :juncMain_35_3"/>
    <junction id=":juncMain_41_0" type="internal" x="503.20" y="501.67" incLanes=":juncMain_5_1 edgeS_O_0 edgeS_O_1 edgeS_O_2" intLanes=":juncMain_5_3 :juncMain_12_0 :juncMain_12_1 :juncMain_12_2 :juncMain_15_0 :juncMain_15_1 :juncMain_15_2 :juncMain_15_3 :juncMain_19_0 :juncMain_20_0 :juncMain_20_1 :juncMain_22_0 :juncMain_22_1 :juncMain_22_2 :juncMain_32_0 :juncMain_32_1 :juncMain_32_2 :juncMain_35_0 :juncMain_35_1 :juncMain_35_2 :juncMain_35_3"/>
    <junction id=":juncMain_42_0" type="internal" x="503.20" y="500.46" incLanes=":juncMain_5_2 edgeS_O_0 edgeS_O_1 edgeS_O_2" intLanes=":juncMain_5_0 :juncMain_12_0 :juncMain_12_1 :juncMain_12_2 :juncMain_15_0 :juncMain_15_1 :juncMain_15_2 :juncMain_15_3 :juncMain_19_0 :juncMain_20_0 :juncMain_20_1 :juncMain_22_0 :juncMain_22_1 :juncMain_22_2 :juncMain_32_0 :juncMain_32_1 :juncMain_32_2 :juncMain_35_0 :juncMain_35_1 :juncMain_35_2 :juncMain_35_3"/>
    <junction id=":juncMain_43_0" type="internal" x="503.20" y="502.88" incLanes=":juncMain_5_3 edgeS_O_0 edgeS_O_1 edgeS_O_2" intLanes=":juncMain_5_1 :juncMain_12_0 :juncMain_12_1 :juncMain_12_2 :juncMain_15_0 :juncMain_15_1 :juncMain_15_2 :juncMain_15_3 :juncMain_19_0 :juncMain_20_0 :juncMain_20_1 :juncMain_22_0 :juncMain_22_1 :juncMain_22_2 :juncMain_32_0 :juncMain_32_1 :juncMain_32_2 :juncMain_35_0 :juncMain_35_1 :juncMain_35_2 :juncMain_35_3"/>
    <junction id=":juncMain_44_0" type="internal" x="500.00" y="515.20" incLanes=":juncMain_9_0 edgeE_O_0 edgeS_O_0 edgeS_O_1 edgeS_O_2 edgeW_O_2 edgeW_O_3" intLanes=":juncMain_10_0 :juncMain_10_1 :juncMain_22_0 :juncMain_22_1 :juncMain_22_2 :juncMain_35_0 :juncMain_35_1 :juncMain_35_2 :juncMain_35_3"/>
    <junction id=":juncMain_45_0" type="internal" x="499.04" y="496.80" incLanes=":juncMain_15_0 edgeW_O_0 edgeW_O_1 edgeW_O_2" intLanes=":juncMain_2_0 :juncMain_2_1 :juncMain_2_2 :juncMain_5_0 :juncMain_5_1 :juncMain_5_2 :juncMain_5_3 :juncMain_15_2 :juncMain_22_0 :juncMain_22_1 :juncMain_22_2 :juncMain_25_0 :juncMain_25_1 :juncMain_25_2 :juncMain_25_3 :juncMain_29_0 :juncMain_30_0 :juncMain_30_1 :juncMain_32_0 :juncMain_32_1 :juncMain_32_2"/>
    <junction id=":juncMain_46_0" type="internal" x="501.67" y="496.80" incLanes=":juncMain_15_1 edgeW_O_0 edgeW_O_1 edgeW_O_2" intLanes=":juncMain_2_0 :juncMain_2_1 :juncMain_2_2 :juncMain_5_0 :juncMain_5_1 :juncMain_5_2 :juncMain_5_3 :juncMain_15_3 :juncMain_22_0 :juncMain_22_1 :juncMain_22_2 :juncMain_25_0 :juncMain_25_1 :juncMain_25_2 :juncMain_25_3 :juncMain_29_0 :juncMain_30_0 :juncMain_30_1 :juncMain_32_0 :juncMain_32_1 :juncMain_32_2"/>
    <junction id=":juncMain_47_0" type="internal" x="500.46" y="496.80" incLanes=":juncMain_15_2 edgeW_O_0 edgeW_O_1 edgeW_O_2" intLanes=":juncMain_2_0 :juncMain_2_1 :juncMain_2_2 :juncMain_5_0 :juncMain_5_1 :juncMain_5_2 :juncMain_5_3 :juncMain_15_0 :juncMain_22_0 :juncMain_22_1 :juncMain_22_2 :juncMain_25_0 :juncMain_25_1 :juncMain_25_2 :juncMain_25_3 :juncMain_29_0 :juncMain_30_0 :juncMain_30_1 :juncMain_32_0 :juncMain_32_1 :juncMain_32_2"/>
    <junction id=":juncMain_48_0" type="internal" x="502.88" y="496.80" incLanes=":juncMain_15_3 edgeW_O_0 edgeW_O_1 edgeW_O_2" intLanes=":juncMain_2_0 :juncMain_2_1 :juncMain_2_2 :juncMain_5_0 :juncMain_5_1 :juncMain_5_2 :juncMain_5_3 :juncMain_15_1 :juncMain_22_0 :juncMain_22_1 :juncMain_22_2 :juncMain_25_0 :juncMain_25_1 :juncMain_25_2 :juncMain_25_3 :juncMain_29_0 :juncMain_30_0 :juncMain_30_1 :juncMain_32_0 :juncMain_32_1 :juncMain_32_2"/>
    <junction id=":juncMain_49_0" type="internal" x="515.20" y="500.00" incLanes=":juncMain_19_0 edgeN_O_2 edgeN_O_3 edgeS_O_0 edgeW_O_0 edgeW_O_1 edgeW_O_2" intLanes=":juncMain_5_0 :juncMain_5_1 :juncMain_5_2 :juncMain_5_3 :juncMain_20_0 :juncMain_20_1 :juncMain_32_0 :juncMain_32_1 :juncMain_32_2"/>
    <junction id=":juncMain_50_0" type="internal" x="496.80" y="500.96" incLanes=":juncMain_25_0 edgeN_O_0 edgeN_O_1 edgeN_O_2" intLanes=":juncMain_0_0 :juncMain_0_1 :juncMain_2_0 :juncMain_2_1 :juncMain_2_2 :juncMain_12_0 :juncMain_12_1 :juncMain_12_2 :juncMain_15_0 :juncMain_15_1 :juncMain_15_2 :juncMain_15_3 :juncMain_25_2 :juncMain_32_0 :juncMain_32_1 :juncMain_32_2 :juncMain_35_0 :juncMain_35_1 :juncMain_35_2 :juncMain_35_3 :juncMain_39_0"/>
    <junction id=":juncMain_51_0" type="internal" x="496.80" y="498.33" incLanes=":juncMain_25_1 edgeN_O_0 edgeN_O_1 edgeN_O_2" intLanes=":juncMain_0_0 :juncMain_0_1 :juncMain_2_0 :juncMain_2_1 :juncMain_2_2 :juncMain_12_0 :juncMain_12_1 :juncMain_12_2 :juncMain_15_0 :juncMain_15_1 :juncMain_15_2 :juncMain_15_3 :juncMain_25_3 :juncMain_32_0 :juncMain_32_1 :juncMain_32_2 :juncMain_35_0 :juncMain_35_1 :juncMain_35_2 :juncMain_35_3 :juncMain_39_0"/>
    <junction id=":juncMain_52_0" type="internal" x="496.80" y="499.54" incLanes=":juncMain_25_2 edgeN_O_0 edgeN_O_1 edgeN_O_2" intLanes=":juncMain_0_0 :juncMain_0_1 :juncMain_2_0 :juncMain_2_1 :juncMain_2_2 :juncMain_12_0 :juncMain_12_1 :juncMain_12_2 :juncMain_15_0 :juncMain_15_1 :juncMain_15_2 :juncMain_15_3 :juncMain_25_0 :juncMain_32_0 :juncMain_32_1 :juncMain_32_2 :juncMain_35_0 :juncMain_35_1 :juncMain_35_2 :juncMain_35_3 :juncMain_39_0"/>