<routes>
   <personFlow id="pRegN" begin="0" end="3000" personsPerHour="664.871125">
        <walk edges="edgeN_O edgeS_I" speed="1.802297"/>
    </personFlow>
   <personFlow id="pRegS" begin="0" end="3000" personsPerHour="239.458949">
        <walk edges="edgeS_O edgeN_I" speed="2.169509"/>
    </personFlow>
   <personFlow id="pRegW" begin="0" end="3000" personsPerHour="776.075355">
        <walk edges="edgeW_O edgeE_I" speed="2.157809"/>
    </personFlow>
   <personFlow id="pRegE" begin="0" end="3000" personsPerHour="656.477100">
        <walk edges="edgeE_O edgeW_I" speed="2.170813"/>
    </personFlow>
   <personFlow id="pOppN" begin="0" end="3000" personsPerHour="291.500839" departPos="800.000000">
        <walk edges="edgeN_I edgeS_O" speed="0.947491"/>
    </personFlow>
   <personFlow id="pOppS" begin="0" end="3000" personsPerHour="1016.780104" departPos="500.000000">
        <walk edges="edgeS_I edgeN_O" speed="1.914636"/>
    </personFlow>
   <personFlow id="pOppW" begin="0" end="3000" personsPerHour="776.744615" departPos="300.000000">
        <walk edges="edgeW_I edgeE_O" speed="1.864200"/>
    </personFlow>
   <personFlow id="pOppE" begin="0" end="3000" personsPerHour="80.596456" departPos="500.000000">
        <walk edges="edgeE_I edgeW_O" speed="1.030419"/>
    </personFlow>

    <route id="edgeN_edgeN" edges="edgeN_O edgeN_I" />
    <route id="edgeN_edgeS" edges="edgeN_O edgeS_I" />
    <route id="edgeN_edgeW" edges="edgeN_O edgeW_I" />
    <route id="edgeN_edgeE" edges="edgeN_O edgeE_I" />
    <route id="edgeS_edgeN" edges="edgeS_O edgeN_I" />
    <route id="edgeS_edgeS" edges="edgeS_O edgeS_I" />
    <route id="edgeS_edgeW" edges="edgeS_O edgeW_I" />
    <route id="edgeS_edgeE" edges="edgeS_O edgeE_I" />
    <route id="edgeW_edgeN" edges="edgeW_O edgeN_I" />
    <route id="edgeW_edgeS" edges="edgeW_O edgeS_I" />
    <route id="edgeW_edgeW" edges="edgeW_O edgeW_I" />
    <route id="edgeW_edgeE" edges="edgeW_O edgeE_I" />
    <route id="edgeE_edgeN" edges="edgeE_O edgeN_I" />
    <route id="edgeE_edgeS" edges="edgeE_O edgeS_I" />
    <route id="edgeE_edgeW" edges="edgeE_O edgeW_I" />
    <route id="edgeE_edgeE" edges="edgeE_O edgeE_I" />
    
   <vType id="vehicleS_0" length="4.233000" accel="3.476000" decel="5.518000" sigma="0.5" minGap="2.486829" maxSpeed="135.107983" guiShape="passenger" />
   <vehicle id="straightS_0" type="vehicleS_0" route="edgeS_edgeN" depart="0" departLane="3" />

   <vType id="vehicleW_1" length="3.891000" accel="2.606000" decel="4.793000" sigma="0.5" minGap="2.486829" maxSpeed="135.107983" guiShape="passenger" />
   <vehicle id="straightW_1" type="vehicleW_1" route="edgeW_edgeE" depart="0" departLane="1" />

   <vType id="vehicleN_2" length="5.179000" accel="2.507000" decel="4.444000" sigma="0.5" minGap="2.486829" maxSpeed="135.107983" guiShape="passenger" />
   <vehicle id="straightN_2" type="vehicleN_2" route="edgeN_edgeS" depart="2" departLane="2" />

   <vType id="vehicleS_3" length="4.433000" accel="2.395000" decel="3.066000" sigma="0.5" minGap="2.486829" maxSpeed="135.107983" guiShape="passenger" />
   <vehicle id="straightS_3" type="vehicleS_3" route="edgeS_edgeN" depart="2" departLane="2" />

   <vType id="vehicleW_4" length="4.350000" accel="2.373000" decel="3.641000" sigma="0.5" minGap="2.486829" maxSpeed="135.107983" guiShape="passenger" />
   <vehicle id="straightW_4" type="vehicleW_4" route="edgeW_edgeE" depart="5" departLane="1" />

   <vType id="vehicleW_5" length="5.022000" accel="3.418000" decel="5.547000" sigma="0.5" minGap="2.486829" maxSpeed="135.107983" guiShape="passenger" />
   <vehicle id="straightW_5" type="vehicleW_5" route="edgeW_edgeE" depart="6" departLane="1" />

   <vType id="vehicleN_6" length="4.127000" accel="2.876000" decel="6.840000" sigma="0.5" minGap="2.486829" maxSpeed="135.107983" guiShape="passenger" />
   <vehicle id="straightN_6" type="vehicleN_6" route="edgeN_edgeS" depart="7" departLane="3" />

   <vType id="vehicleW_7" length="5.195000" accel="2.333000" decel="6.131000" sigma="0.5" minGap="2.486829" maxSpeed="135.107983" guiShape="passenger" />
   <vehicle id="straightW_7" type="vehicleW_7" route="edgeW_edgeE" depart="7" departLane="2" />

   <vType id="vehicleN_8" length="4.840000" accel="3.445000" decel="3.556000" sigma="0.5" minGap="2.486829" maxSpeed="135.107983" guiShape="passenger" />
   <vehicle id="straightN_8" type="vehicleN_8" route="edgeN_edgeS" depart="8" departLane="2" />

   <vType id="vehicleN_9" length="4.830000" accel="2.680000" decel="5.128000" sigma="0.5" minGap="2.486829" maxSpeed="135.107983" guiShape="passenger" />
   <vehicle id="straightN_9" type="vehicleN_9" route="edgeN_edgeS" depart="9" departLane="3" />

   <vType id="vehicleW_10" length="4.738000" accel="2.392000" decel="2.856000" sigma="0.5" minGap="2.486829" maxSpeed="135.107983" guiShape="passenger" />
   <vehicle id="uturnW_10" type="vehicleW_10" route="edgeW_edgeW" depart="9" departLane="4" />

   <vType id="vehicleE_11" length="5.237000" accel="2.948000" decel="2.925000" sigma="0.5" minGap="2.486829" maxSpeed="135.107983" guiShape="passenger" />
   <vehicle id="straightE_11" type="vehicleE_11" route="edgeE_edgeW" depart="9" departLane="2" />

   <vType id="vehicleW_12" length="5.503000" accel="3.381000" decel="3.141000" sigma="0.5" minGap="2.486829" maxSpeed="135.107983" guiShape="passenger" />
   <vehicle id="straightW_12" type="vehicleW_12" route="edgeW_edgeE" depart="10" departLane="3" />

   <vType id="vehicleE_13" length="5.114000" accel="3.447000" decel="6.766000" sigma="0.5" minGap="2.486829" maxSpeed="135.107983" guiShape="passenger" />
   <vehicle id="leftE_13" type="vehicleE_13" route="edgeE_edgeS" depart="11" departLane="2" />

   <vType id="vehicleS_14" length="5.325000" accel="3.092000" decel="3.498000" sigma="0.5" minGap="2.486829" maxSpeed="135.107983" guiShape="passenger" />
   <vehicle id="straightS_14" type="vehicleS_14" route="edgeS_edgeN" depart="12" departLane="2" />

   <vType id="vehicleW_15" length="3.873000" accel="3.799000" decel="6.372000" sigma="0.5" minGap="2.486829" maxSpeed="135.107983" guiShape="passenger" />
   <vehicle id="straightW_15" type="vehicleW_15" route="edgeW_edgeE" depart="13" departLane="2" />

   <vType id="vehicleE_16" length="4.841000" accel="2.372000" decel="5.751000" sigma="0.5" minGap="2.486829" maxSpeed="135.107983" guiShape="passenger" />
   <vehicle id="straightE_16" type="vehicleE_16" route="edgeE_edgeW" depart="13" departLane="1" />

   <vType id="vehicleW_17" length="5.511000" accel="2.517000" decel="4.888000" sigma="0.5" minGap="2.486829" maxSpeed="135.107983" guiShape="passenger" />
   <vehicle id="straightW_17" type="vehicleW_17" route="edgeW_edgeE" depart="14" departLane="3" />

   <vType id="vehicleN_18" length="5.128000" accel="2.577000" decel="3.975000" sigma="0.5" minGap="2.486829" maxSpeed="135.107983" guiShape="passenger" />
   <vehicle id="straightN_18" type="vehicleN_18" route="edgeN_edgeS" depart="15" departLane="3" />

   <vType id="vehicleN_19" length="4.436000" accel="3.227000" decel="3.630000" sigma="0.5" minGap="2.486829" maxSpeed="135.107983" guiShape="passenger" />
   <vehicle id="straightN_19" type="vehicleN_19" route="edgeN_edgeS" depart="16" departLane="1" />

   <vType id="vehicleS_20" length="3.942000" accel="2.352000" decel="2.790000" sigma="0.5" minGap="2.486829" maxSpeed="135.107983" guiShape="passenger" />
   <vehicle id="straightS_20" type="vehicleS_20" route="edgeS_edgeN" depart="16" departLane="2" />

   <vType id="vehicleW_21" length="5.020000" accel="2.599000" decel="3.216000" sigma="0.5" minGap="2.486829" maxSpeed="135.107983" guiShape="passenger" />
   <vehicle id="straightW_21" type="vehicleW_21" route="edgeW_edgeE" depart="16" departLane="3" />

   <vType id="vehicleN_22" length="4.557000" accel="2.398000" decel="5.443000" sigma="0.5" minGap="2.486829" maxSpeed="135.107983" guiShape="passenger" />
   <vehicle id="straightN_22" type="vehicleN_22" route="edgeN_edgeS" depart="17" departLane="2" />

   <vType id="vehicleW_23" length="4.438000" accel="3.686000" decel="3.708000" sigma="0.5" minGap="2.486829" maxSpeed="135.107983" guiShape="passenger" />
   <vehicle id="straightW_23" type="vehicleW_23" route="edgeW_edgeE" depart="18" departLane="1" />

   <vType id="vehicleN_24" length="4.656000" accel="3.707000" decel="2.976000" sigma="0.5" minGap="2.486829" maxSpeed="135.107983" guiShape="passenger" />
   <vehicle id="straightN_24" type="vehicleN_24" route="edgeN_edgeS" depart="19" departLane="3" />

   <vType id="vehicleS_25" length="4.793000" accel="2.264000" decel="3.051000" sigma="0.5" minGap="2.486829" maxSpeed="135.107983" guiShape="passenger" />
   <vehicle id="straightS_25" type="vehicleS_25" route="edgeS_edgeN" depart="19" departLane="1" />

   <vType id="vehicleW_26" length="4.216000" accel="2.913000" decel="2.905000" sigma="0.5" minGap="2.486829" maxSpeed="135.107983" guiShape="passenger" />
   <vehicle id="straightW_26" type="vehicleW_26" route="edgeW_edgeE" depart="19" departLane="2" />

   <vType id="vehicleE_27" length="5.475000" accel="3.557000" decel="3.863000" sigma="0.5" minGap="2.486829" maxSpeed="135.107983" guiShape="passenger" />
   <vehicle id="straightE_27" type="vehicleE_27" route="edgeE_edgeW" depart="19" departLane="3" />

   <vType id="vehicleN_28" length="5.549000" accel="3.212000" decel="4.949000" sigma="0.5" minGap="2.486829" maxSpeed="135.107983" guiShape="passenger" />
   <vehicle id="straightN_28" type="vehicleN_28" route="edgeN_edgeS" depart="21" departLane="3" />

   <vType id="vehicleW_29" length="5.462000" accel="3.131000" decel="2.897000" sigma="0.5" minGap="2.486829" maxSpeed="135.107983" guiShape="passenger" />
   <vehicle id="straightW_29" type="vehicleW_29" route="edgeW_edgeE" depart="21" departLane="3" />

   <vType id="vehicleE_30" length="4.889000" accel="3.373000" decel="3.651000" sigma="0.5" minGap="2.486829" maxSpeed="135.107983" guiShape="passenger" />
   <vehicle id="straightE_30" type="vehicleE_30" route="edgeE_edgeW" depart="21" departLane="1" />

   <vType id="vehicleE_31" length="5.000000" accel="3.188000" decel="3.994000" sigma="0.5" minGap="2.486829" maxSpeed="135.107983" guiShape="passenger" />
   <vehicle id="straightE_31" type="vehicleE_31" route="edgeE_edgeW" depart="22" departLane="2" />

   <vType id="vehicleN_32" length="4.260000" accel="2.904000" decel="5.497000" sigma="0.5" minGap="2.486829" maxSpeed="135.107983" guiShape="passenger" />
   <vehicle id="straightN_32" type="vehicleN_32" route="edgeN_edgeS" depart="23" departLane="2" />

   <vType id="vehicleN_33" length="4.833000" accel="2.407000" decel="4.930000" sigma="0.5" minGap="2.486829" maxSpeed="135.107983" guiShape="passenger" />
   <vehicle id="straightN_33" type="vehicleN_33" route="edgeN_edgeS" depart="24" departLane="3" />

   <vType id="vehicleW_34" length="5.081000" accel="3.266000" decel="6.831000" sigma="0.5" minGap="2.486829" maxSpeed="135.107983" guiShape="passenger" />
   <vehicle id="straightW_34" type="vehicleW_34" route="edgeW_edgeE" depart="25" departLane="3" />

   <vType id="vehicleE_35" length="4.305000" accel="3.733000" decel="5.796000" sigma="0.5" minGap="2.486829" maxSpeed="135.107983" guiShape="passenger" />
   <vehicle id="rightE_35" type="vehicleE_35" route="edgeE_edgeN" depart="26" departLane="1" />

   <vType id="vehicleN_36" length="5.106000" accel="2.581000" decel="5.338000" sigma="0.5" minGap="2.486829" maxSpeed="135.107983" guiShape="passenger" />
   <vehicle id="straightN_36" type="vehicleN_36" route="edgeN_edgeS" depart="27" departLane="2" />

   <vType id="vehicleW_37" length="3.928000" accel="3.304000" decel="6.163000" sigma="0.5" minGap="2.486829" maxSpeed="135.107983" guiShape="passenger" />
   <vehicle id="rightW_37" type="vehicleW_37" route="edgeW_edgeS" depart="27" departLane="1" />

   <vType id="vehicleE_38" length="4.964000" accel="2.679000" decel="5.791000" sigma="0.5" minGap="2.486829" maxSpeed="135.107983" guiShape="passenger" />
   <vehicle id="straightE_38" type="vehicleE_38" route="edgeE_edgeW" depart="27" departLane="3" />

   <vType id="vehicleW_39" length="5.059000" accel="2.490000" decel="2.809000" sigma="0.5" minGap="2.486829" maxSpeed="135.107983" guiShape="passenger" />
   <vehicle id="rightW_39" type="vehicleW_39" route="edgeW_edgeS" depart="28" departLane="2" />

   <vType id="vehicleN_40" length="4.383000" accel="3.748000" decel="6.023000" sigma="0.5" minGap="2.486829" maxSpeed="135.107983" guiShape="passenger" />
   <vehicle id="leftN_40" type="vehicleN_40" route="edgeN_edgeE" depart="29" departLane="4" />

   <vType id="vehicleW_41" length="4.020000" accel="3.549000" decel="6.395000" sigma="0.5" minGap="2.486829" maxSpeed="135.107983" guiShape="passenger" />
   <vehicle id="straightW_41" type="vehicleW_41" route="edgeW_edgeE" depart="29" departLane="2" />

   <vType id="vehicleW_42" length="5.251000" accel="2.537000" decel="4.400000" sigma="0.5" minGap="2.486829" maxSpeed="135.107983" guiShape="passenger" />
   <vehicle id="straightW_42" type="vehicleW_42" route="edgeW_edgeE" depart="30" departLane="1" />

   <vType id="vehicleN_43" length="5.255000" accel="3.690000" decel="6.084000" sigma="0.5" minGap="2.486829" maxSpeed="135.107983" guiShape="passenger" />
   <vehicle id="straightN_43" type="vehicleN_43" route="edgeN_edgeS" depart="31" departLane="2" />

   <vType id="vehicleS_44" length="4.514000" accel="2.304000" decel="4.647000" sigma="0.5" minGap="2.486829" maxSpeed="135.107983" guiShape="passenger" />
   <vehicle id="straightS_44" type="vehicleS_44" route="edgeS_edgeN" depart="31" departLane="1" />

   <vType id="vehicleN_45" length="4.240000" accel="2.279000" decel="3.473000" sigma="0.5" minGap="2.486829" maxSpeed="135.107983" guiShape="passenger" />
   <vehicle id="straightN_45" type="vehicleN_45" route="edgeN_edgeS" depart="32" departLane="2" />

   <vType id="vehicleW_46" length="4.459000" accel="3.094000" decel="5.530000" sigma="0.5" minGap="2.486829" maxSpeed="135.107983" guiShape="passenger" />
   <vehicle id="straightW_46" type="vehicleW_46" route="edgeW_edgeE" depart="32" departLane="3" />

   <vType id="vehicleE_47" length="5.388000" accel="2.678000" decel="5.111000" sigma="0.5" minGap="2.486829" maxSpeed="135.107983" guiShape="passenger" />
   <vehicle id="leftE_47" type="vehicleE_47" route="edgeE_edgeS" depart="32" departLane="3" />

   <vType id="vehicleN_48" length="4.449000" accel="3.560000" decel="4.502000" sigma="0.5" minGap="2.486829" maxSpeed="135.107983" guiShape="passenger" />
   <vehicle id="straightN_48" type="vehicleN_48" route="edgeN_edgeS" depart="33" departLane="3" />

   <vType id="vehicleS_49" length="4.174000" accel="2.314000" decel="4.500000" sigma="0.5" minGap="2.486829" maxSpeed="135.107983" guiShape="passenger" />
   <vehicle id="straightS_49" type="vehicleS_49" route="edgeS_edgeN" depart="33" departLane="3" />

   <vType id="vehicleN_50" length="4.422000" accel="2.766000" decel="6.242000" sigma="0.5" minGap="2.486829" maxSpeed="135.107983" guiShape="passenger" />
   <vehicle id="straightN_50" type="vehicleN_50" route="edgeN_edgeS" depart="35" departLane="3" />

   <vType id="vehicleN_51" length="4.818000" accel="2.561000" decel="5.468000" sigma="0.5" minGap="2.486829" maxSpeed="135.107983" guiShape="passenger" />
   <vehicle id="straightN_51" type="vehicleN_51" route="edgeN_edgeS" depart="36" departLane="2" />

   <vType id="vehicleN_52" length="3.839000" accel="2.721000" decel="4.474000" sigma="0.5" minGap="2.486829" maxSpeed="135.107983" guiShape="passenger" />
   <vehicle id="straightN_52" type="vehicleN_52" route="edgeN_edgeS" depart="37" departLane="3" />

   <vType id="vehicleS_53" length="4.253000" accel="2.760000" decel="6.067000" sigma="0.5" minGap="2.486829" maxSpeed="135.107983" guiShape="passenger" />
   <vehicle id="straightS_53" type="vehicleS_53" route="edgeS_edgeN" depart="40" departLane="1" />

   <vType id="vehicleW_54" length="4.678000" accel="3.666000" decel="2.965000" sigma="0.5" minGap="2.486829" maxSpeed="135.107983" guiShape="passenger" />
   <vehicle id="straightW_54" type="vehicleW_54" route="edgeW_edgeE" depart="40" departLane="2" />

   <vType id="vehicleN_55" length="5.415000" accel="3.684000" decel="6.400000" sigma="0.5" minGap="2.486829" maxSpeed="135.107983" guiShape="passenger" />
   <vehicle id="straightN_55" type="vehicleN_55" route="edgeN_edgeS" depart="42" departLane="2" />

   <vType id="vehicleE_56" length="4.659000" accel="3.131000" decel="5.020000" sigma="0.5" minGap="2.486829" maxSpeed="135.107983" guiShape="passenger" />
   <vehicle id="straightE_56" type="vehicleE_56" route="edgeE_edgeW" depart="43" departLane="2" />

   <vType id="vehicleW_57" length="4.965000" accel="3.525000" decel="4.861000" sigma="0.5" minGap="2.486829" maxSpeed="135.107983" guiShape="passenger" />
   <vehicle id="straightW_57" type="vehicleW_57" route="edgeW_edgeE" depart="46" departLane="3" />

   <vType id="vehicleE_58" length="5.099000" accel="2.633000" decel="4.077000" sigma="0.5" minGap="2.486829" maxSpeed="135.107983" guiShape="passenger" />
   <vehicle id="straightE_58" type="vehicleE_58" route="edgeE_edgeW" depart="46" departLane="3" />

   <vType id="vehicleN_59" length="4.515000" accel="2.496000" decel="3.561000" sigma="0.5" minGap="2.486829" maxSpeed="135.107983" guiShape="passenger" />
   <vehicle id="leftN_59" type="vehicleN_59" route="edgeN_edgeE" depart="47" departLane="4" />

   <vType id="vehicleN_60" length="5.437000" accel="3.220000" decel="5.597000" sigma="0.5" minGap="2.486829" maxSpeed="135.107983" guiShape="passenger" />
   <vehicle id="straightN_60" type="vehicleN_60" route="edgeN_edgeS" depart="48" departLane="3" />

   <vType id="vehicleW_61" length="5.169000" accel="3.672000" decel="6.688000" sigma="0.5" minGap="2.486829" maxSpeed="135.107983" guiShape="passenger" />
   <vehicle id="straightW_61" type="vehicleW_61" route="edgeW_edgeE" depart="48" departLane="2" />

   <vType id="vehicleN_62" length="4.525000" accel="3.362000" decel="6.031000" sigma="0.5" minGap="2.486829" maxSpeed="135.107983" guiShape="passenger" />
   <vehicle id="straightN_62" type="vehicleN_62" route="edgeN_edgeS" depart="50" departLane="3" />

   <vType id="vehicleS_63" length="4.064000" accel="3.284000" decel="2.771000" sigma="0.5" minGap="2.486829" maxSpeed="135.107983" guiShape="passenger" />
   <vehicle id="straightS_63" type="vehicleS_63" route="edgeS_edgeN" depart="50" departLane="2" />

   <vType id="vehicleN_64" length="5.370000" accel="2.544000" decel="3.757000" sigma="0.5" minGap="2.486829" maxSpeed="135.107983" guiShape="passenger" />
   <vehicle id="straightN_64" type="vehicleN_64" route="edgeN_edgeS" depart="51" departLane="2" />

   <vType id="vehicleN_65" length="5.308000" accel="2.663000" decel="3.003000" sigma="0.5" minGap="2.486829" maxSpeed="135.107983" guiShape="passenger" />
   <vehicle id="straightN_65" type="vehicleN_65" route="edgeN_edgeS" depart="52" departLane="1" />

   <vType id="vehicleW_66" length="4.234000" accel="2.355000" decel="6.704000" sigma="0.5" minGap="2.486829" maxSpeed="135.107983" guiShape="passenger" />
   <vehicle id="rightW_66" type="vehicleW_66" route="edgeW_edgeS" depart="52" departLane="1" />

   <vType id="vehicleS_67" length="4.107000" accel="2.451000" decel="5.487000" sigma="0.5" minGap="2.486829" maxSpeed="135.107983" guiShape="passenger" />
   <vehicle id="leftS_67" type="vehicleS_67" route="edgeS_edgeW" depart="53" departLane="4" />

   <vType id="vehicleE_68" length="4.909000" accel="3.857000" decel="5.694000" sigma="0.5" minGap="2.486829" maxSpeed="135.107983" guiShape="passenger" />
   <vehicle id="straightE_68" type="vehicleE_68" route="edgeE_edgeW" depart="53" departLane="1" />

   <vType id="vehicleS_69" length="4.389000" accel="3.376000" decel="6.708000" sigma="0.5" minGap="2.486829" maxSpeed="135.107983" guiShape="passenger" />
   <vehicle id="leftS_69" type="vehicleS_69" route="edgeS_edgeW" depart="54" departLane="4" />

   <vType id="vehicleE_70" length="5.305000" accel="2.647000" decel="5.604000" sigma="0.5" minGap="2.486829" maxSpeed="135.107983" guiShape="passenger" />
   <vehicle id="straightE_70" type="vehicleE_70" route="edgeE_edgeW" depart="54" departLane="2" />

   <vType id="vehicleW_71" length="5.221000" accel="2.822000" decel="4.468000" sigma="0.5" minGap="2.486829" maxSpeed="135.107983" guiShape="passenger" />
   <vehicle id="uturnW_71" type="vehicleW_71" route="edgeW_edgeW" depart="55" departLane="4" />

   <vType id="vehicleN_72" length="4.961000" accel="3.631000" decel="5.647000" sigma="0.5" minGap="2.486829" maxSpeed="135.107983" guiShape="passenger" />
   <vehicle id="uturnN_72" type="vehicleN_72" route="edgeN_edgeN" depart="57" departLane="4" />

   <vType id="vehicleN_73" length="4.789000" accel="3.051000" decel="4.498000" sigma="0.5" minGap="2.486829" maxSpeed="135.107983" guiShape="passenger" />
   <vehicle id="straightN_73" type="vehicleN_73" route="edgeN_edgeS" depart="58" departLane="3" />

   <vType id="vehicleE_74" length="4.331000" accel="2.996000" decel="5.830000" sigma="0.5" minGap="2.486829" maxSpeed="135.107983" guiShape="passenger" />
   <vehicle id="rightE_74" type="vehicleE_74" route="edgeE_edgeN" depart="58" departLane="2" />

   <vType id="vehicleN_75" length="4.412000" accel="3.058000" decel="4.157000" sigma="0.5" minGap="2.486829" maxSpeed="135.107983" guiShape="passenger" />
   <vehicle id="straightN_75" type="vehicleN_75" route="edgeN_edgeS" depart="59" departLane="2" />

   <vType id="vehicleN_76" length="5.513000" accel="2.383000" decel="5.701000" sigma="0.5" minGap="2.486829" maxSpeed="135.107983" guiShape="passenger" />
   <vehicle id="leftN_76" type="vehicleN_76" route="edgeN_edgeE" depart="60" departLane="4" />

   <vType id="vehicleW_77" length="5.096000" accel="2.992000" decel="2.730000" sigma="0.5" minGap="2.486829" maxSpeed="135.107983" guiShape="passenger" />
   <vehicle id="straightW_77" type="vehicleW_77" route="edgeW_edgeE" depart="60" departLane="2" />

   <vType id="vehicleE_78" length="4.379000" accel="3.216000" decel="4.658000" sigma="0.5" minGap="2.486829" maxSpeed="135.107983" guiShape="passenger" />
   <vehicle id="straightE_78" type="vehicleE_78" route="edgeE_edgeW" depart="60" departLane="3" />

   <vType id="vehicleN_79" length="4.811000" accel="2.830000" decel="4.575000" sigma="0.5" minGap="2.486829" maxSpeed="135.107983" guiShape="passenger" />
   <vehicle id="uturnN_79" type="vehicleN_79" route="edgeN_edgeN" depart="61" departLane="4" />

   <vType id="vehicleW_80" length="4.396000" accel="3.486000" decel="6.677000" sigma="0.5" minGap="2.486829" maxSpeed="135.107983" guiShape="passenger" />
   <vehicle id="straightW_80" type="vehicleW_80" route="edgeW_edgeE" depart="61" departLane="3" />

   <vType id="vehicleE_81" length="4.694000" accel="3.456000" decel="6.786000" sigma="0.5" minGap="2.486829" maxSpeed="135.107983" guiShape="passenger" />
   <vehicle id="straightE_81" type="vehicleE_81" route="edgeE_edgeW" depart="61" departLane="3" />

   <vType id="vehicleE_82" length="4.372000" accel="3.428000" decel="3.192000" sigma="0.5" minGap="2.486829" maxSpeed="135.107983" guiShape="passenger" />
   <vehicle id="straightE_82" type="vehicleE_82" route="edgeE_edgeW" depart="62" departLane="1" />

   <vType id="vehicleE_83" length="4.705000" accel="3.704000" decel="5.084000" sigma="0.5" minGap="2.486829" maxSpeed="135.107983" guiShape="passenger" />
   <vehicle id="rightE_83" type="vehicleE_83" route="edgeE_edgeN" depart="63" departLane="2" />

   <vType id="vehicleE_84" length="4.040000" accel="2.349000" decel="4.736000" sigma="0.5" minGap="2.486829" maxSpeed="135.107983" guiShape="passenger" />
   <vehicle id="straightE_84" type="vehicleE_84" route="edgeE_edgeW" depart="64" departLane="3" />

   <vType id="vehicleS_85" length="4.833000" accel="2.749000" decel="6.859000" sigma="0.5" minGap="2.486829" maxSpeed="135.107983" guiShape="passenger" />
   <vehicle id="leftS_85" type="vehicleS_85" route="edgeS_edgeW" depart="65" departLane="4" />

   <vType id="vehicleS_86" length="4.014000" accel="3.520000" decel="5.301000" sigma="0.5" minGap="2.486829" maxSpeed="135.107983" guiShape="passenger" />
   <vehicle id="uturnS_86" type="vehicleS_86" route="edgeS_edgeS" depart="68" departLane="4" />

   <vType id="vehicleE_87" length="4.813000" accel="2.502000" decel="4.384000" sigma="0.5" minGap="2.486829" maxSpeed="135.107983" guiShape="passenger" />
   <vehicle id="straightE_87" type="vehicleE_87" route="edgeE_edgeW" depart="68" departLane="3" />

   <vType id="vehicleW_88" length="5.080000" accel="3.002000" decel="5.563000" sigma="0.5" minGap="2.486829" maxSpeed="135.107983" guiShape="passenger" />
   <vehicle id="straightW_88" type="vehicleW_88" route="edgeW_edgeE" depart="69" departLane="2" />

   <vType id="vehicleN_89" length="4.382000" accel="3.497000" decel="5.063000" sigma="0.5" minGap="2.486829" maxSpeed="135.107983" guiShape="passenger" />
   <vehicle id="straightN_89" type="vehicleN_89" route="edgeN_edgeS" depart="72" departLane="2" />

   <vType id="vehicleE_90" length="4.319000" accel="3.146000" decel="4.508000" sigma="0.5" minGap="2.486829" maxSpeed="135.107983" guiShape="passenger" />
   <vehicle id="straightE_90" type="vehicleE_90" route="edgeE_edgeW" depart="72" departLane="3" />

   <vType id="vehicleN_91" length="4.408000" accel="2.660000" decel="3.043000" sigma="0.5" minGap="2.486829" maxSpeed="135.107983" guiShape="passenger" />
   <vehicle id="straightN_91" type="vehicleN_91" route="edgeN_edgeS" depart="73" departLane="3" />

   <vType id="vehicleE_92" length="4.669000" accel="3.333000" decel="6.530000" sigma="0.5" minGap="2.486829" maxSpeed="135.107983" guiShape="passenger" />
   <vehicle id="straightE_92" type="vehicleE_92" route="edgeE_edgeW" depart="74" departLane="1" />

   <vType id="vehicleE_93" length="4.565000" accel="3.071000" decel="5.458000" sigma="0.5" minGap="2.486829" maxSpeed="135.107983" guiShape="passenger" />
   <vehicle id="straightE_93" type="vehicleE_93" route="edgeE_edgeW" depart="76" departLane="2" />

   <vType id="vehicleE_94" length="5.552000" accel="2.918000" decel="4.832000" sigma="0.5" minGap="2.486829" maxSpeed="135.107983" guiShape="passenger" />
   <vehicle id="straightE_94" type="vehicleE_94" route="edgeE_edgeW" depart="77" departLane="1" />

   <vType id="vehicleE_95" length="5.175000" accel="3.289000" decel="5.870000" sigma="0.5" minGap="2.486829" maxSpeed="135.107983" guiShape="passenger" />
   <vehicle id="straightE_95" type="vehicleE_95" route="edgeE_edgeW" depart="78" departLane="1" />

   <vType id="vehicleN_96" length="4.347000" accel="3.718000" decel="4.706000" sigma="0.5" minGap="2.486829" maxSpeed="135.107983" guiShape="passenger" />
   <vehicle id="leftN_96" type="vehicleN_96" route="edgeN_edgeE" depart="79" departLane="4" />

   <vType id="vehicleE_97" length="4.811000" accel="3.166000" decel="3.051000" sigma="0.5" minGap="2.486829" maxSpeed="135.107983" guiShape="passenger" />
   <vehicle id="straightE_97" type="vehicleE_97" route="edgeE_edgeW" depart="79" departLane="1" />

   <vType id="vehicleS_98" length="4.719000" accel="3.442000" decel="4.808000" sigma="0.5" minGap="2.486829" maxSpeed="135.107983" guiShape="passenger" />
   <vehicle id="straightS_98" type="vehicleS_98" route="edgeS_edgeN" depart="80" departLane="2" />

   <vType id="vehicleW_99" length="4.897000" accel="3.492000" decel="3.234000" sigma="0.5" minGap="2.486829" maxSpeed="135.107983" guiShape="passenger" />
   <vehicle id="straightW_99" type="vehicleW_99" route="edgeW_edgeE" depart="81" departLane="1" />

   <vType id="vehicleE_100" length="4.571000" accel="3.808000" decel="4.803000" sigma="0.5" minGap="2.486829" maxSpeed="135.107983" guiShape="passenger" />
   <vehicle id="straightE_100" type="vehicleE_100" route="edgeE_edgeW" depart="81" departLane="1" />

   <vType id="vehicleN_101" length="4.875000" accel="3.916000" decel="4.727000" sigma="0.5" minGap="2.486829" maxSpeed="135.107983" guiShape="passenger" />
   <vehicle id="straightN_101" type="vehicleN_101" route="edgeN_edgeS" depart="82" departLane="1" />

   <vType id="vehicleE_102" length="4.505000" accel="3.805000" decel="6.333000" sigma="0.5" minGap="2.486829" maxSpeed="135.107983" guiShape="passenger" />
   <vehicle id="straightE_102" type="vehicleE_102" route="edgeE_edgeW" depart="82" departLane="3" />

   <vType id="vehicleN_103" length="5.350000" accel="2.929000" decel="4.002000" sigma="0.5" minGap="2.486829" maxSpeed="135.107983" guiShape="passenger" />
   <vehicle id="straightN_103" type="vehicleN_103" route="edgeN_edgeS" depart="83" departLane="2" />

   <vType id="vehicleN_104" length="4.881000" accel="3.699000" decel="6.353000" sigma="0.5" minGap="2.486829" maxSpeed="135.107983" guiShape="passenger" />
   <vehicle id="straightN_104" type="vehicleN_104" route="edgeN_edgeS" depart="85" departLane="2" />

   <vType id="vehicleS_105" length="3.865000" accel="2.481000" decel="6.339000" sigma="0.5" minGap="2.486829" maxSpeed="135.107983" guiShape="passenger" />
   <vehicle id="straightS_105" type="vehicleS_105" route="edgeS_edgeN" depart="85" departLane="1" />

   <vType id="vehicleW_106" length="4.306000" accel="3.286000" decel="4.337000" sigma="0.5" minGap="2.486829" maxSpeed="135.107983" guiShape="passenger" />
   <vehicle id="straightW_106" type="vehicleW_106" route="edgeW_edgeE" depart="85" departLane="1" />

   <vType id="vehicleE_107" length="5.180000" accel="3.704000" decel="2.809000" sigma="0.5" minGap="2.486829" maxSpeed="135.107983" guiShape="passenger" />
   <vehicle id="straightE_107" type="vehicleE_107" route="edgeE_edgeW" depart="86" departLane="1" />

   <vType id="vehicleN_108" length="4.346000" accel="2.621000" decel="3.039000" sigma="0.5" minGap="2.486829" maxSpeed="135.107983" guiShape="passenger" />
   <vehicle id="straightN_108" type="vehicleN_108" route="edgeN_edgeS" depart="87" departLane="1" />
