<?xml version="1.0" encoding="UTF-8"?>

<!-- generated on 2021-10-16 07:59:25 by Eclipse SUMO netconvert Version 1.10.0
<configuration xmlns:xsi="http://www.w3.org/2001/XMLSchema-instance" xsi:noNamespaceSchemaLocation="http://sumo.dlr.de/xsd/netconvertConfiguration.xsd">

    <input>
        <node-files value="data/cross.nod.xml"/>
        <edge-files value="data/cross.edg.xml"/>
        <connection-files value="data/cross.con.xml"/>
    </input>

    <output>
        <output-file value="data/cross.net.xml"/>
    </output>

    <report>
        <aggregate-warnings value="5"/>
    </report>

</configuration>
-->

<net version="1.9" junctionCornerDetail="5" limitTurnSpeed="5.50" xmlns:xsi="http://www.w3.org/2001/XMLSchema-instance" xsi:noNamespaceSchemaLocation="http://sumo.dlr.de/xsd/net_file.xsd">

    <location netOffset="500.00,500.00" convBoundary="0.00,0.00,1000.00,1000.00" origBoundary="-500.00,-500.00,500.00,500.00" projParameter="!"/>

    <edge id=":juncE_0" function="internal">
        <lane id=":juncE_0_0" index="0" speed="3.65" length="4.67" shape="1000.00,498.40 1001.20,499.20 1001.60,500.00 1001.20,500.80 1000.00,501.60"/>
    </edge>
    <edge id=":juncE_w0" function="walkingarea">
        <lane id=":juncE_w0_0" index="0" allow="pedestrian" speed="1.00" length="28.80" width="3.20" shape="1000.00,500.00 1000.00,503.20 1000.00,503.20 1000.00,506.40 1000.00,506.40 1000.00,509.60 1000.00,509.60 1000.00,512.80 1000.00,512.80 1000.00,516.00 1000.00,484.00 1000.00,487.20 1000.00,487.20 1000.00,490.40 1000.00,490.40 1000.00,493.60 1000.00,493.60 1000.00,496.80 1000.00,496.80 1000.00,500.00"/>
    </edge>
    <edge id=":juncMain_0" function="internal">
        <lane id=":juncMain_0_0" index="0" speed="6.86" length="10.16" shape="488.80,517.50 488.41,514.74 487.23,512.77 485.26,511.59 482.50,511.20"/>
        <lane id=":juncMain_0_1" index="1" speed="7.64" length="12.84" shape="488.80,517.50 488.41,513.34 487.23,510.38 485.26,508.59 482.50,508.00"/>
    </edge>
    <edge id=":juncMain_2" function="internal">
        <lane id=":juncMain_2_0" index="0" speed="15.00" length="35.00" shape="488.80,517.50 488.80,482.50"/>
        <lane id=":juncMain_2_1" index="1" speed="15.00" length="35.00" shape="492.00,517.50 492.00,482.50"/>
        <lane id=":juncMain_2_2" index="2" speed="15.00" length="35.00" shape="495.20,517.50 495.20,482.50"/>
    </edge>
    <edge id=":juncMain_5" function="internal">
        <lane id=":juncMain_5_0" index="0" speed="12.42" length="18.31" shape="495.20,517.50 497.45,509.77 503.06,501.42 503.20,501.29"/>
        <lane id=":juncMain_5_1" index="1" speed="12.04" length="20.81" shape="495.20,517.50 497.43,510.27 503.02,503.02 506.26,500.52"/>
        <lane id=":juncMain_5_2" index="2" speed="12.06" length="13.96" shape="498.40,517.50 500.26,509.77 503.20,504.53"/>
        <lane id=":juncMain_5_3" index="3" speed="12.03" length="17.66" shape="498.40,517.50 499.59,507.74 503.17,500.78"/>
    </edge>
    <edge id=":juncMain_9" function="internal">
        <lane id=":juncMain_9_0" index="0" speed="4.72" length="4.40" shape="498.40,517.50 500.00,515.10 501.60,514.30 503.20,515.10"/>
        <lane id=":juncMain_9_1" index="1" speed="3.65" length="4.40" shape="498.40,517.50 499.20,516.30 500.00,515.90"/>
    </edge>
    <edge id=":juncMain_44" function="internal">
        <lane id=":juncMain_44_0" index="0" speed="12.42" length="17.36" shape="503.20,501.29 510.31,494.73 517.50,492.00"/>
    </edge>
    <edge id=":juncMain_45" function="internal">
        <lane id=":juncMain_45_0" index="0" speed="12.04" length="12.63" shape="506.26,500.52 510.27,497.43 517.50,495.20"/>
    </edge>
    <edge id=":juncMain_46" function="internal">
        <lane id=":juncMain_46_0" index="0" speed="12.06" length="19.61" shape="503.20,504.53 504.95,501.42 511.14,494.73 517.50,492.00"/>
    </edge>
    <edge id=":juncMain_47" function="internal">
        <lane id=":juncMain_47_0" index="0" speed="12.03" length="15.76" shape="503.17,500.78 509.14,496.59 517.50,495.20"/>
    </edge>
    <edge id=":juncMain_48" function="internal">
        <lane id=":juncMain_48_0" index="0" speed="4.72" length="2.88" shape="503.20,515.10 504.80,517.50"/>
    </edge>
    <edge id=":juncMain_49" function="internal">
        <lane id=":juncMain_49_0" index="0" speed="3.65" length="2.34" shape="500.00,515.90 500.80,516.30 501.60,517.50"/>
    </edge>
    <edge id=":juncMain_11" function="internal">
        <lane id=":juncMain_11_0" index="0" speed="6.86" length="10.16" shape="517.50,511.20 514.74,511.59 512.77,512.77 511.59,514.74 511.20,517.50"/>
        <lane id=":juncMain_11_1" index="1" speed="7.64" length="12.84" shape="517.50,511.20 513.34,511.59 510.38,512.77 508.59,514.74 508.00,517.50"/>
    </edge>
    <edge id=":juncMain_13" function="internal">
        <lane id=":juncMain_13_0" index="0" speed="15.00" length="35.00" shape="517.50,511.20 482.50,511.20"/>
        <lane id=":juncMain_13_1" index="1" speed="15.00" length="35.00" shape="517.50,508.00 482.50,508.00"/>
        <lane id=":juncMain_13_2" index="2" speed="15.00" length="35.00" shape="517.50,504.80 482.50,504.80"/>
    </edge>
    <edge id=":juncMain_16" function="internal">
        <lane id=":juncMain_16_0" index="0" speed="12.42" length="18.31" shape="517.50,504.80 509.77,502.55 501.42,496.94 501.29,496.80"/>
        <lane id=":juncMain_16_1" index="1" speed="12.04" length="20.81" shape="517.50,504.80 510.27,502.57 503.02,496.98 500.52,493.74"/>
        <lane id=":juncMain_16_2" index="2" speed="12.06" length="13.96" shape="517.50,501.60 509.77,499.74 504.53,496.80"/>
        <lane id=":juncMain_16_3" index="3" speed="12.03" length="17.66" shape="517.50,501.60 507.74,500.41 500.78,496.83"/>
    </edge>
    <edge id=":juncMain_20" function="internal">
        <lane id=":juncMain_20_0" index="0" speed="4.72" length="4.40" shape="517.50,501.60 515.10,500.00 514.30,498.40 515.10,496.80"/>
        <lane id=":juncMain_20_1" index="1" speed="3.65" length="4.40" shape="517.50,501.60 516.30,500.80 515.90,500.00"/>
    </edge>
    <edge id=":juncMain_50" function="internal">
        <lane id=":juncMain_50_0" index="0" speed="12.42" length="17.36" shape="501.29,496.80 494.73,489.69 492.00,482.50"/>
    </edge>
    <edge id=":juncMain_51" function="internal">
        <lane id=":juncMain_51_0" index="0" speed="12.04" length="12.63" shape="500.52,493.74 497.43,489.73 495.20,482.50"/>
    </edge>
    <edge id=":juncMain_52" function="internal">
        <lane id=":juncMain_52_0" index="0" speed="12.06" length="19.61" shape="504.53,496.80 501.42,495.05 494.73,488.86 492.00,482.50"/>
    </edge>
    <edge id=":juncMain_53" function="internal">
        <lane id=":juncMain_53_0" index="0" speed="12.03" length="15.76" shape="500.78,496.83 496.59,490.86 495.20,482.50"/>
    </edge>
    <edge id=":juncMain_54" function="internal">
        <lane id=":juncMain_54_0" index="0" speed="4.72" length="2.88" shape="515.10,496.80 517.50,495.20"/>
    </edge>
    <edge id=":juncMain_55" function="internal">
        <lane id=":juncMain_55_0" index="0" speed="3.65" length="2.34" shape="515.90,500.00 516.30,499.20 517.50,498.40"/>
    </edge>
    <edge id=":juncMain_22" function="internal">
        <lane id=":juncMain_22_0" index="0" speed="6.86" length="10.16" shape="511.20,482.50 511.59,485.26 512.77,487.22 514.74,488.41 517.50,488.80"/>
        <lane id=":juncMain_22_1" index="1" speed="7.64" length="12.84" shape="511.20,482.50 511.59,486.66 512.77,489.62 514.74,491.41 517.50,492.00"/>
    </edge>
    <edge id=":juncMain_24" function="internal">
        <lane id=":juncMain_24_0" index="0" speed="15.00" length="35.00" shape="511.20,482.50 511.20,517.50"/>
        <lane id=":juncMain_24_1" index="1" speed="15.00" length="35.00" shape="508.00,482.50 508.00,517.50"/>
        <lane id=":juncMain_24_2" index="2" speed="15.00" length="35.00" shape="504.80,482.50 504.80,517.50"/>
    </edge>
    <edge id=":juncMain_27" function="internal">
        <lane id=":juncMain_27_0" index="0" speed="12.42" length="18.31" shape="504.80,482.50 502.55,490.23 496.94,498.58 496.80,498.71"/>
        <lane id=":juncMain_27_1" index="1" speed="12.04" length="20.81" shape="504.80,482.50 502.57,489.73 496.98,496.98 493.74,499.48"/>
        <lane id=":juncMain_27_2" index="2" speed="12.06" length="13.96" shape="501.60,482.50 499.74,490.23 496.80,495.47"/>
        <lane id=":juncMain_27_3" index="3" speed="12.03" length="17.66" shape="501.60,482.50 500.41,492.26 496.83,499.22"/>
    </edge>
    <edge id=":juncMain_31" function="internal">
        <lane id=":juncMain_31_0" index="0" speed="4.72" length="4.40" shape="501.60,482.50 500.00,484.90 498.40,485.70 496.80,484.90"/>
        <lane id=":juncMain_31_1" index="1" speed="3.65" length="4.40" shape="501.60,482.50 500.80,483.70 500.00,484.10"/>
    </edge>
    <edge id=":juncMain_56" function="internal">
        <lane id=":juncMain_56_0" index="0" speed="12.42" length="17.36" shape="496.80,498.71 489.69,505.27 482.50,508.00"/>
    </edge>
    <edge id=":juncMain_57" function="internal">
        <lane id=":juncMain_57_0" index="0" speed="12.04" length="12.63" shape="493.74,499.48 489.73,502.57 482.50,504.80"/>
    </edge>
    <edge id=":juncMain_58" function="internal">
        <lane id=":juncMain_58_0" index="0" speed="12.06" length="19.61" shape="496.80,495.47 495.05,498.58 488.86,505.27 482.50,508.00"/>
    </edge>
    <edge id=":juncMain_59" function="internal">
        <lane id=":juncMain_59_0" index="0" speed="12.03" length="15.76" shape="496.83,499.22 490.86,503.41 482.50,504.80"/>
    </edge>
    <edge id=":juncMain_60" function="internal">
        <lane id=":juncMain_60_0" index="0" speed="4.72" length="2.88" shape="496.80,484.90 495.20,482.50"/>
    </edge>
    <edge id=":juncMain_61" function="internal">
        <lane id=":juncMain_61_0" index="0" speed="3.65" length="2.34" shape="500.00,484.10 499.20,483.70 498.40,482.50"/>
    </edge>
    <edge id=":juncMain_33" function="internal">
        <lane id=":juncMain_33_0" index="0" speed="6.86" length="10.16" shape="482.50,488.80 485.26,488.41 487.22,487.23 488.41,485.26 488.80,482.50"/>
        <lane id=":juncMain_33_1" index="1" speed="7.64" length="12.84" shape="482.50,488.80 486.66,488.41 489.62,487.23 491.41,485.26 492.00,482.50"/>
    </edge>
    <edge id=":juncMain_35" function="internal">
        <lane id=":juncMain_35_0" index="0" speed="15.00" length="35.00" shape="482.50,488.80 517.50,488.80"/>
        <lane id=":juncMain_35_1" index="1" speed="15.00" length="35.00" shape="482.50,492.00 517.50,492.00"/>
        <lane id=":juncMain_35_2" index="2" speed="15.00" length="35.00" shape="482.50,495.20 517.50,495.20"/>
    </edge>
    <edge id=":juncMain_38" function="internal">
        <lane id=":juncMain_38_0" index="0" speed="12.42" length="18.31" shape="482.50,495.20 490.23,497.45 498.58,503.06 498.71,503.20"/>
        <lane id=":juncMain_38_1" index="1" speed="12.04" length="20.81" shape="482.50,495.20 489.73,497.43 496.98,503.02 499.48,506.26"/>
        <lane id=":juncMain_38_2" index="2" speed="12.06" length="13.96" shape="482.50,498.40 490.23,500.26 495.47,503.20"/>
        <lane id=":juncMain_38_3" index="3" speed="12.03" length="17.66" shape="482.50,498.40 492.26,499.59 499.22,503.17"/>
    </edge>
    <edge id=":juncMain_42" function="internal">
        <lane id=":juncMain_42_0" index="0" speed="4.72" length="4.40" shape="482.50,498.40 484.90,500.00 485.70,501.60 484.90,503.20"/>
        <lane id=":juncMain_42_1" index="1" speed="3.65" length="4.40" shape="482.50,498.40 483.70,499.20 484.10,500.00"/>
    </edge>
    <edge id=":juncMain_62" function="internal">
        <lane id=":juncMain_62_0" index="0" speed="12.42" length="17.36" shape="498.71,503.20 505.27,510.31 508.00,517.50"/>
    </edge>
    <edge id=":juncMain_63" function="internal">
        <lane id=":juncMain_63_0" index="0" speed="12.04" length="12.63" shape="499.48,506.26 502.57,510.27 504.80,517.50"/>
    </edge>
    <edge id=":juncMain_64" function="internal">
        <lane id=":juncMain_64_0" index="0" speed="12.06" length="19.61" shape="495.47,503.20 498.58,504.95 505.27,511.14 508.00,517.50"/>
    </edge>
    <edge id=":juncMain_65" function="internal">
        <lane id=":juncMain_65_0" index="0" speed="12.03" length="15.76" shape="499.22,503.17 503.41,509.14 504.80,517.50"/>
    </edge>
    <edge id=":juncMain_66" function="internal">
        <lane id=":juncMain_66_0" index="0" speed="4.72" length="2.88" shape="484.90,503.20 482.50,504.80"/>
    </edge>
    <edge id=":juncMain_67" function="internal">
        <lane id=":juncMain_67_0" index="0" speed="3.65" length="2.34" shape="484.10,500.00 483.70,500.80 482.50,501.60"/>
    </edge>
    <edge id=":juncMain_w0" function="walkingarea">
        <lane id=":juncMain_w0_0" index="0" allow="pedestrian" speed="1.00" length="31.82" width="3.20" shape="484.00,517.50 487.20,517.50 487.20,517.50 490.40,517.50 490.40,517.50 493.60,517.50 493.60,517.50 496.80,517.50 496.80,517.50 500.00,517.50 500.00,517.50 503.20,517.50 503.20,517.50 506.40,517.50 506.40,517.50 509.60,517.50 509.60,517.50 512.80,517.50 512.80,517.50 516.00,517.50 517.50,516.00 517.50,512.80 517.50,512.80 517.50,509.60 517.50,509.60 517.50,506.40 517.50,506.40 517.50,503.20 517.50,503.20 517.50,500.00 517.50,500.00 517.50,496.80 517.50,496.80 517.50,493.60 517.50,493.60 517.50,490.40 517.50,490.40 517.50,487.20 517.50,487.20 517.50,484.00 516.00,482.50 512.80,482.50 512.80,482.50 509.60,482.50 509.60,482.50 506.40,482.50 506.40,482.50 503.20,482.50 503.20,482.50 500.00,482.50 500.00,482.50 496.80,482.50 496.80,482.50 493.60,482.50 493.60,482.50 490.40,482.50 490.40,482.50 487.20,482.50 487.20,482.50 484.00,482.50 482.50,484.00 482.50,487.20 482.50,487.20 482.50,490.40 482.50,490.40 482.50,493.60 482.50,493.60 482.50,496.80 482.50,496.80 482.50,500.00 482.50,500.00 482.50,503.20 482.50,503.20 482.50,506.40 482.50,506.40 482.50,509.60 482.50,509.60 482.50,512.80 482.50,512.80 482.50,516.00 483.96,517.04 483.83,516.67 483.62,516.38 483.33,516.17 482.96,516.04"/>
    </edge>
    <edge id=":juncN_0" function="internal">
        <lane id=":juncN_0_0" index="0" speed="3.65" length="4.67" shape="501.60,1000.00 500.80,1001.20 500.00,1001.60 499.20,1001.20 498.40,1000.00"/>
    </edge>
    <edge id=":juncN_w0" function="walkingarea">
        <lane id=":juncN_w0_0" index="0" allow="pedestrian" speed="1.00" length="28.80" width="3.20" shape="500.00,1000.00 496.80,1000.00 496.80,1000.00 493.60,1000.00 493.60,1000.00 490.40,1000.00 490.40,1000.00 487.20,1000.00 487.20,1000.00 484.00,1000.00 516.00,1000.00 512.80,1000.00 512.80,1000.00 509.60,1000.00 509.60,1000.00 506.40,1000.00 506.40,1000.00 503.20,1000.00 503.20,1000.00 500.00,1000.00"/>
    </edge>
    <edge id=":juncS_0" function="internal">
        <lane id=":juncS_0_0" index="0" speed="3.65" length="4.67" shape="498.40,0.00 499.20,-1.20 500.00,-1.60 500.80,-1.20 501.60,0.00"/>
    </edge>
    <edge id=":juncS_w0" function="walkingarea">
        <lane id=":juncS_w0_0" index="0" allow="pedestrian" speed="1.00" length="28.80" width="3.20" shape="500.00,0.00 503.20,0.00 503.20,0.00 506.40,0.00 506.40,0.00 509.60,0.00 509.60,0.00 512.80,0.00 512.80,0.00 516.00,0.00 484.00,0.00 487.20,0.00 487.20,0.00 490.40,0.00 490.40,0.00 493.60,0.00 493.60,0.00 496.80,0.00 496.80,0.00 500.00,0.00"/>
    </edge>
    <edge id=":juncW_0" function="internal">
        <lane id=":juncW_0_0" index="0" speed="3.65" length="4.67" shape="0.00,501.60 -1.20,500.80 -1.60,500.00 -1.20,499.20 0.00,498.40"/>
    </edge>
    <edge id=":juncW_w0" function="walkingarea">
        <lane id=":juncW_w0_0" index="0" allow="pedestrian" speed="1.00" length="28.80" width="3.20" shape="0.00,500.00 0.00,496.80 0.00,496.80 0.00,493.60 0.00,493.60 0.00,490.40 0.00,490.40 0.00,487.20 0.00,487.20 0.00,484.00 0.00,516.00 0.00,512.80 0.00,512.80 0.00,509.60 0.00,509.60 0.00,506.40 0.00,506.40 0.00,503.20 0.00,503.20 0.00,500.00"/>
    </edge>

    <edge id="edgeE_I" from="juncMain" to="juncE" priority="46">
        <lane id="edgeE_I_0" index="0" allow="pedestrian" speed="11.00" length="482.50" shape="517.50,485.60 1000.00,485.60"/>
        <lane id="edgeE_I_1" index="1" speed="11.00" length="482.50" shape="517.50,488.80 1000.00,488.80"/>
        <lane id="edgeE_I_2" index="2" speed="11.00" length="482.50" shape="517.50,492.00 1000.00,492.00"/>
        <lane id="edgeE_I_3" index="3" speed="11.00" length="482.50" shape="517.50,495.20 1000.00,495.20"/>
        <lane id="edgeE_I_4" index="4" speed="11.00" length="482.50" shape="517.50,498.40 1000.00,498.40"/>
    </edge>
    <edge id="edgeE_O" from="juncE" to="juncMain" priority="78">
        <lane id="edgeE_O_0" index="0" allow="pedestrian" speed="19.00" length="482.50" shape="1000.00,514.40 517.50,514.40"/>
        <lane id="edgeE_O_1" index="1" speed="19.00" length="482.50" shape="1000.00,511.20 517.50,511.20"/>
        <lane id="edgeE_O_2" index="2" speed="19.00" length="482.50" shape="1000.00,508.00 517.50,508.00"/>
        <lane id="edgeE_O_3" index="3" speed="19.00" length="482.50" shape="1000.00,504.80 517.50,504.80"/>
        <lane id="edgeE_O_4" index="4" speed="19.00" length="482.50" shape="1000.00,501.60 517.50,501.60"/>
    </edge>
    <edge id="edgeN_I" from="juncMain" to="juncN" priority="46">
        <lane id="edgeN_I_0" index="0" allow="pedestrian" speed="11.00" length="482.50" shape="514.40,517.50 514.40,1000.00"/>
        <lane id="edgeN_I_1" index="1" speed="11.00" length="482.50" shape="511.20,517.50 511.20,1000.00"/>
        <lane id="edgeN_I_2" index="2" speed="11.00" length="482.50" shape="508.00,517.50 508.00,1000.00"/>
        <lane id="edgeN_I_3" index="3" speed="11.00" length="482.50" shape="504.80,517.50 504.80,1000.00"/>
        <lane id="edgeN_I_4" index="4" speed="11.00" length="482.50" shape="501.60,517.50 501.60,1000.00"/>
    </edge>
    <edge id="edgeN_O" from="juncN" to="juncMain" priority="78">
        <lane id="edgeN_O_0" index="0" allow="pedestrian" speed="19.00" length="482.50" shape="485.60,1000.00 485.60,517.50"/>
        <lane id="edgeN_O_1" index="1" speed="19.00" length="482.50" shape="488.80,1000.00 488.80,517.50"/>
        <lane id="edgeN_O_2" index="2" speed="19.00" length="482.50" shape="492.00,1000.00 492.00,517.50"/>
        <lane id="edgeN_O_3" index="3" speed="19.00" length="482.50" shape="495.20,1000.00 495.20,517.50"/>
        <lane id="edgeN_O_4" index="4" speed="19.00" length="482.50" shape="498.40,1000.00 498.40,517.50"/>
    </edge>
    <edge id="edgeS_I" from="juncMain" to="juncS" priority="46">
        <lane id="edgeS_I_0" index="0" allow="pedestrian" speed="11.00" length="482.50" shape="485.60,482.50 485.60,0.00"/>
        <lane id="edgeS_I_1" index="1" speed="11.00" length="482.50" shape="488.80,482.50 488.80,0.00"/>
        <lane id="edgeS_I_2" index="2" speed="11.00" length="482.50" shape="492.00,482.50 492.00,0.00"/>
        <lane id="edgeS_I_3" index="3" speed="11.00" length="482.50" shape="495.20,482.50 495.20,0.00"/>
        <lane id="edgeS_I_4" index="4" speed="11.00" length="482.50" shape="498.40,482.50 498.40,0.00"/>
    </edge>
    <edge id="edgeS_O" from="juncS" to="juncMain" priority="78">
        <lane id="edgeS_O_0" index="0" allow="pedestrian" speed="19.00" length="482.50" shape="514.40,0.00 514.40,482.50"/>
        <lane id="edgeS_O_1" index="1" speed="19.00" length="482.50" shape="511.20,0.00 511.20,482.50"/>
        <lane id="edgeS_O_2" index="2" speed="19.00" length="482.50" shape="508.00,0.00 508.00,482.50"/>
        <lane id="edgeS_O_3" index="3" speed="19.00" length="482.50" shape="504.80,0.00 504.80,482.50"/>
        <lane id="edgeS_O_4" index="4" speed="19.00" length="482.50" shape="501.60,0.00 501.60,482.50"/>
    </edge>
    <edge id="edgeW_I" from="juncMain" to="juncW" priority="46">
        <lane id="edgeW_I_0" index="0" allow="pedestrian" speed="11.00" length="482.50" shape="482.50,514.40 0.00,514.40"/>
        <lane id="edgeW_I_1" index="1" speed="11.00" length="482.50" shape="482.50,511.20 0.00,511.20"/>
        <lane id="edgeW_I_2" index="2" speed="11.00" length="482.50" shape="482.50,508.00 0.00,508.00"/>
        <lane id="edgeW_I_3" index="3" speed="11.00" length="482.50" shape="482.50,504.80 0.00,504.80"/>
        <lane id="edgeW_I_4" index="4" speed="11.00" length="482.50" shape="482.50,501.60 0.00,501.60"/>
    </edge>
    <edge id="edgeW_O" from="juncW" to="juncMain" priority="78">
        <lane id="edgeW_O_0" index="0" allow="pedestrian" speed="19.00" length="482.50" shape="0.00,485.60 482.50,485.60"/>
        <lane id="edgeW_O_1" index="1" speed="19.00" length="482.50" shape="0.00,488.80 482.50,488.80"/>
        <lane id="edgeW_O_2" index="2" speed="19.00" length="482.50" shape="0.00,492.00 482.50,492.00"/>
        <lane id="edgeW_O_3" index="3" speed="19.00" length="482.50" shape="0.00,495.20 482.50,495.20"/>
        <lane id="edgeW_O_4" index="4" speed="19.00" length="482.50" shape="0.00,498.40 482.50,498.40"/>
    </edge>

    <tlLogic id="juncMain" type="static" programID="0" offset="0">
        <phase duration="31" state="GGGGGggggggrrrrrrrrrrrGGGGGggggggrrrrrrrrrrr"/>
        <phase duration="4"  state="yyyyyyyggggrrrrrrrrrrryyyyyyyggggrrrrrrrrrrr"/>
        <phase duration="6"  state="rrrrrrrGGGGrrrrrrrrrrrrrrrrrrGGGGrrrrrrrrrrr"/>
        <phase duration="4"  state="rrrrrrryyyyrrrrrrrrrrrrrrrrrryyyyrrrrrrrrrrr"/>
        <phase duration="31" state="rrrrrrrrrrrGGGGGggggggrrrrrrrrrrrGGGGGgggggg"/>
        <phase duration="4"  state="rrrrrrrrrrryyyyyyyggggrrrrrrrrrrryyyyyyygggg"/>
        <phase duration="6"  state="rrrrrrrrrrrrrrrrrrGGGGrrrrrrrrrrrrrrrrrrGGGG"/>
        <phase duration="4"  state="rrrrrrrrrrrrrrrrrryyyyrrrrrrrrrrrrrrrrrryyyy"/>
    </tlLogic>

    <junction id="juncE" type="priority" x="1000.00" y="500.00" incLanes="edgeE_I_0 edgeE_I_1 edgeE_I_2 edgeE_I_3 edgeE_I_4" intLanes=":juncE_0_0" shape="1000.00,500.00 1000.00,484.00 1000.00,500.00">
        <request index="0" response="0" foes="0" cont="0"/>
    </junction>
    <junction id="juncMain" type="traffic_light" x="500.00" y="500.00" incLanes="edgeN_O_0 edgeN_O_1 edgeN_O_2 edgeN_O_3 edgeN_O_4 edgeE_O_0 edgeE_O_1 edgeE_O_2 edgeE_O_3 edgeE_O_4 edgeS_O_0 edgeS_O_1 edgeS_O_2 edgeS_O_3 edgeS_O_4 edgeW_O_0 edgeW_O_1 edgeW_O_2 edgeW_O_3 edgeW_O_4" intLanes=":juncMain_0_0 :juncMain_0_1 :juncMain_2_0 :juncMain_2_1 :juncMain_2_2 :juncMain_44_0 :juncMain_45_0 :juncMain_46_0 :juncMain_47_0 :juncMain_48_0 :juncMain_49_0 :juncMain_11_0 :juncMain_11_1 :juncMain_13_0 :juncMain_13_1 :juncMain_13_2 :juncMain_50_0 :juncMain_51_0 :juncMain_52_0 :juncMain_53_0 :juncMain_54_0 :juncMain_55_0 :juncMain_22_0 :juncMain_22_1 :juncMain_24_0 :juncMain_24_1 :juncMain_24_2 :juncMain_56_0 :juncMain_57_0 :juncMain_58_0 :juncMain_59_0 :juncMain_60_0 :juncMain_61_0 :juncMain_33_0 :juncMain_33_1 :juncMain_35_0 :juncMain_35_1 :juncMain_35_2 :juncMain_62_0 :juncMain_63_0 :juncMain_64_0 :juncMain_65_0 :juncMain_66_0 :juncMain_67_0" shape="484.00,517.50 516.00,517.50 516.17,516.67 516.38,516.38 516.67,516.17 517.04,516.04 517.50,516.00 517.50,484.00 516.67,483.83 516.38,483.62 516.17,483.33 516.04,482.96 516.00,482.50 484.00,482.50 483.83,483.33 483.62,483.62 483.33,483.83 482.96,483.96 482.50,484.00 482.50,516.00 483.33,516.17 483.62,516.38 483.83,516.67 483.96,517.04">
        <request index="0"  response="00000000000000000000000000000000000000000000" foes="00000000000001111000000000001110000000000000" cont="0"/>
        <request index="1"  response="00000000000000000000000000000000000000000000" foes="00000000000001111000000000001110000000000000" cont="0"/>
        <request index="2"  response="00111100000000000000000011110000000000000000" foes="00111111111111111000000011111110000000000000" cont="0"/>
        <request index="3"  response="00111100000000000000000011110000000000000000" foes="00111111111111111000000011111110000000000000" cont="0"/>
        <request index="4"  response="00111100000000000000000011110000000000000000" foes="00111111111111111000000011111110000000000000" cont="0"/>
        <request index="5"  response="00111100000000000111110011110000000010000000" foes="00111111100000000111111111111110000010000000" cont="1"/>
        <request index="6"  response="00111100000000000111110011110000000100000000" foes="00111111100000000111111111111110000100000000" cont="1"/>
        <request index="7"  response="00111100000000000111110011110000000000000000" foes="00111111100000000111111111111110000000100000" cont="1"/>
        <request index="8"  response="00111100000000000111110011110000000000000000" foes="00111111100000000111111111111110000001000000" cont="1"/>
        <request index="9"  response="00111100000000000111000000000000000000000000" foes="00111100000000000111000000000000000000000000" cont="1"/>
        <request index="10" response="00111100000000000111000000000000000000000000" foes="00111100000000000111000000000000000000000000" cont="1"/>
        <request index="11" response="00000000000000000111000000000000000000000000" foes="00111100000000000111000000000000000000000000" cont="0"/>
        <request index="12" response="00000000000000000111000000000000000000000000" foes="00111100000000000111000000000000000000000000" cont="0"/>
        <request index="13" response="00000000000001111111000000000000000111111111" foes="11111100000001111111000000000000000111111111" cont="0"/>
        <request index="14" response="00000000000001111111000000000000000111111111" foes="11111100000001111111000000000000000111111111" cont="0"/>
        <request index="15" response="00000000000001111111000000000000000111111111" foes="11111100000001111111000000000000000111111111" cont="0"/>
        <request index="16" response="00000011111001111111000001000000000111111100" foes="00000011111111111111000001000000000111111100" cont="1"/>
        <request index="17" response="00000011111001111111000010000000000111111100" foes="00000011111111111111000010000000000111111100" cont="1"/>
        <request index="18" response="00000011111001111111000000000000000111111100" foes="00000011111111111111000000010000000111111100" cont="1"/>
        <request index="19" response="00000011111001111111000000000000000111111100" foes="00000011111111111111000000100000000111111100" cont="1"/>
        <request index="20" response="00000011100000000000000000000000000111100000" foes="00000011100000000000000000000000000111100000" cont="1"/>
        <request index="21" response="00000011100000000000000000000000000111100000" foes="00000011100000000000000000000000000111100000" cont="1"/>
        <request index="22" response="00000000000000000000000000000000000000000000" foes="00000011100000000000000000000000000111100000" cont="0"/>
        <request index="23" response="00000000000000000000000000000000000000000000" foes="00000011100000000000000000000000000111100000" cont="0"/>
        <request index="24" response="00111100000000000000000011110000000000000000" foes="00111111100000000000000011111111111111100000" cont="0"/>
        <request index="25" response="00111100000000000000000011110000000000000000" foes="00111111100000000000000011111111111111100000" cont="0"/>
        <request index="26" response="00111100000000000000000011110000000000000000" foes="00111111100000000000000011111111111111100000" cont="0"/>
        <request index="27" response="00111100000000100000000011110000000000011111" foes="11111111100000100000000011111110000000011111" cont="1"/>
        <request index="28" response="00111100000001000000000011110000000000011111" foes="11111111100001000000000011111110000000011111" cont="1"/>
        <request index="29" response="00111100000000000000000011110000000000011111" foes="11111111100000001000000011111110000000011111" cont="1"/>
        <request index="30" response="00111100000000000000000011110000000000011111" foes="11111111100000010000000011111110000000011111" cont="1"/>
        <request index="31" response="00000000000000000000000011110000000000011100" foes="00000000000000000000000011110000000000011100" cont="1"/>
        <request index="32" response="00000000000000000000000011110000000000011100" foes="00000000000000000000000011110000000000011100" cont="1"/>
        <request index="33" response="00000000000000000000000000000000000000011100" foes="00000000000000000000000011110000000000011100" cont="0"/>
        <request index="34" response="00000000000000000000000000000000000000011100" foes="00000000000000000000000011110000000000011100" cont="0"/>
        <request index="35" response="00000000000001111111110000000000000111111100" foes="00000000000001111111111111110000000111111100" cont="0"/>
        <request index="36" response="00000000000001111111110000000000000111111100" foes="00000000000001111111111111110000000111111100" cont="0"/>
        <request index="37" response="00000000000001111111110000000000000111111100" foes="00000000000001111111111111110000000111111100" cont="0"/>
        <request index="38" response="00010000000001111111000000001111100111111100" foes="00010000000001111111000000001111111111111100" cont="1"/>
        <request index="39" response="00100000000001111111000000001111100111111100" foes="00100000000001111111000000001111111111111100" cont="1"/>
        <request index="40" response="00000000000001111111000000001111100111111100" foes="00000100000001111111000000001111111111111100" cont="1"/>
        <request index="41" response="00000000000001111111000000001111100111111100" foes="00001000000001111111000000001111111111111100" cont="1"/>
        <request index="42" response="00000000000001111000000000001110000000000000" foes="00000000000001111000000000001110000000000000" cont="1"/>
        <request index="43" response="00000000000001111000000000001110000000000000" foes="00000000000001111000000000001110000000000000" cont="1"/>
    </junction>