<?xml version="1.0" encoding="UTF-8"?>

<!-- generated on 2021-10-25 03:37:49 by Eclipse SUMO netconvert Version 1.10.0
<configuration xmlns:xsi="http://www.w3.org/2001/XMLSchema-instance" xsi:noNamespaceSchemaLocation="http://sumo.dlr.de/xsd/netconvertConfiguration.xsd">

    <input>
        <node-files value="data/cross.nod.xml"/>
        <edge-files value="data/cross.edg.xml"/>
        <connection-files value="data/cross.con.xml"/>
    </input>

    <output>
        <output-file value="data/cross.net.xml"/>
    </output>

    <junctions>
        <no-turnarounds.except-turnlane value="true"/>
    </junctions>

    <report>
        <aggregate-warnings value="5"/>
    </report>

</configuration>
-->

<net version="1.9" junctionCornerDetail="5" limitTurnSpeed="5.50" xmlns:xsi="http://www.w3.org/2001/XMLSchema-instance" xsi:noNamespaceSchemaLocation="http://sumo.dlr.de/xsd/net_file.xsd">

    <location netOffset="600.00,700.00" convBoundary="0.00,0.00,1400.00,1000.00" origBoundary="-600.00,-700.00,800.00,300.00" projParameter="!"/>

    <edge id=":juncE_0" function="internal">
        <lane id=":juncE_0_0" index="0" disallow="pedestrian" speed="3.65" length="4.67" shape="1400.00,698.40 1401.20,699.20 1401.60,700.00 1401.20,700.80 1400.00,701.60"/>
    </edge>
    <edge id=":juncE_w0" function="walkingarea">
        <lane id=":juncE_w0_0" index="0" allow="pedestrian" speed="1.00" length="35.20" width="3.20" shape="1400.00,716.00 1400.00,719.20 1400.00,680.80 1400.00,684.00"/>
    </edge>
    <edge id=":juncMain_0" function="internal">
        <lane id=":juncMain_0_0" index="0" disallow="pedestrian" speed="6.86" length="5.34" shape="592.00,720.70 591.61,717.94 590.42,715.98 590.20,715.84"/>
        <lane id=":juncMain_0_1" index="1" disallow="pedestrian" speed="7.64" length="8.30" shape="595.20,720.70 594.61,717.94 592.83,715.98 590.20,714.93"/>
    </edge>
    <edge id=":juncMain_2" function="internal">
        <lane id=":juncMain_2_0" index="0" disallow="pedestrian" speed="24.67" length="41.40" shape="595.20,720.70 595.20,679.30"/>
    </edge>
    <edge id=":juncMain_3" function="internal">
        <lane id=":juncMain_3_0" index="0" disallow="pedestrian" speed="8.38" length="3.91" shape="598.40,720.70 597.61,717.94 596.80,717.28"/>
    </edge>
    <edge id=":juncMain_4" function="internal">
        <lane id=":juncMain_4_0" index="0" disallow="pedestrian" speed="24.67" length="41.40" shape="598.40,720.70 598.40,679.30"/>
    </edge>
    <edge id=":juncMain_5" function="internal">
        <lane id=":juncMain_5_0" index="0" disallow="pedestrian" speed="11.60" length="11.35" shape="598.40,720.70 599.39,710.94 600.00,709.53"/>
    </edge>
    <edge id=":juncMain_6" function="internal">
        <lane id=":juncMain_6_0" index="0" disallow="pedestrian" speed="3.65" length="2.34" shape="598.40,720.70 599.20,719.50 600.00,719.10"/>
    </edge>
    <edge id=":juncMain_30" function="internal">
        <lane id=":juncMain_30_0" index="0" disallow="pedestrian" speed="6.86" length="4.82" shape="590.20,715.84 588.46,714.79 585.70,714.40"/>
    </edge>
    <edge id=":juncMain_31" function="internal">
        <lane id=":juncMain_31_0" index="0" disallow="pedestrian" speed="7.64" length="4.54" shape="590.20,714.93 589.86,714.79 585.70,714.40"/>
    </edge>
    <edge id=":juncMain_32" function="internal">
        <lane id=":juncMain_32_0" index="0" disallow="pedestrian" speed="8.38" length="11.75" shape="596.80,717.28 595.22,715.98 591.26,714.79 585.70,714.40"/>
    </edge>
    <edge id=":juncMain_33" function="internal">
        <lane id=":juncMain_33_0" index="0" disallow="pedestrian" speed="11.60" length="19.63" shape="600.00,709.53 602.38,703.98 607.34,699.79 614.30,698.40"/>
    </edge>
    <edge id=":juncMain_34" function="internal">
        <lane id=":juncMain_34_0" index="0" disallow="pedestrian" speed="3.65" length="2.34" shape="600.00,719.10 600.80,719.50 601.60,720.70"/>
    </edge>
    <edge id=":juncMain_7" function="internal">
        <lane id=":juncMain_7_0" index="0" disallow="pedestrian" speed="6.86" length="5.34" shape="614.30,714.40 611.54,714.79 609.58,715.97 609.44,716.20"/>
        <lane id=":juncMain_7_1" index="1" disallow="pedestrian" speed="7.64" length="7.67" shape="614.30,714.40 610.14,714.79 607.17,715.97 606.97,716.20"/>
        <lane id=":juncMain_7_2" index="2" disallow="pedestrian" speed="7.64" length="8.30" shape="614.30,711.20 611.54,711.79 609.58,713.58 608.53,716.20"/>
        <lane id=":juncMain_7_3" index="3" disallow="pedestrian" speed="8.29" length="10.72" shape="614.30,711.20 610.14,711.79 607.17,713.58 605.60,716.20"/>
    </edge>
    <edge id=":juncMain_11" function="internal">
        <lane id=":juncMain_11_0" index="0" disallow="pedestrian" speed="17.42" length="28.60" shape="614.30,711.20 585.70,711.20"/>
        <lane id=":juncMain_11_1" index="1" disallow="pedestrian" speed="17.42" length="28.60" shape="614.30,708.00 585.70,708.00"/>
        <lane id=":juncMain_11_2" index="2" disallow="pedestrian" speed="17.42" length="28.60" shape="614.30,704.80 585.70,704.80"/>
        <lane id=":juncMain_11_3" index="3" disallow="pedestrian" speed="17.42" length="28.60" shape="614.30,701.60 585.70,701.60"/>
    </edge>
    <edge id=":juncMain_35" function="internal">
        <lane id=":juncMain_35_0" index="0" disallow="pedestrian" speed="6.86" length="4.82" shape="609.44,716.20 608.39,717.94 608.00,720.70"/>
    </edge>
    <edge id=":juncMain_36" function="internal">
        <lane id=":juncMain_36_0" index="0" disallow="pedestrian" speed="7.64" length="5.17" shape="606.97,716.20 605.39,717.94 604.80,720.70"/>
    </edge>
    <edge id=":juncMain_37" function="internal">
        <lane id=":juncMain_37_0" index="0" disallow="pedestrian" speed="7.64" length="4.54" shape="608.53,716.20 608.39,716.54 608.00,720.70"/>
    </edge>
    <edge id=":juncMain_38" function="internal">
        <lane id=":juncMain_38_0" index="0" disallow="pedestrian" speed="8.29" length="4.60" shape="605.60,716.20 605.39,716.54 604.80,720.70"/>
    </edge>
    <edge id=":juncMain_15" function="internal">
        <lane id=":juncMain_15_0" index="0" disallow="pedestrian" speed="6.86" length="5.34" shape="608.00,679.30 608.39,682.06 609.58,684.02 609.80,684.16"/>
        <lane id=":juncMain_15_1" index="1" disallow="pedestrian" speed="7.64" length="8.30" shape="604.80,679.30 605.39,682.06 607.17,684.02 609.80,685.07"/>
    </edge>
    <edge id=":juncMain_17" function="internal">
        <lane id=":juncMain_17_0" index="0" disallow="pedestrian" speed="24.67" length="41.40" shape="604.80,679.30 604.80,720.70"/>
    </edge>
    <edge id=":juncMain_18" function="internal">
        <lane id=":juncMain_18_0" index="0" disallow="pedestrian" speed="8.38" length="3.91" shape="601.60,679.30 602.39,682.06 603.20,682.72"/>
    </edge>
    <edge id=":juncMain_19" function="internal">
        <lane id=":juncMain_19_0" index="0" disallow="pedestrian" speed="24.67" length="41.40" shape="601.60,679.30 601.60,720.70"/>
    </edge>
    <edge id=":juncMain_20" function="internal">
        <lane id=":juncMain_20_0" index="0" disallow="pedestrian" speed="11.60" length="11.35" shape="601.60,679.30 600.61,689.06 600.00,690.47"/>
    </edge>
    <edge id=":juncMain_21" function="internal">
        <lane id=":juncMain_21_0" index="0" disallow="pedestrian" speed="3.65" length="2.34" shape="601.60,679.30 600.80,680.50 600.00,680.90"/>
    </edge>
    <edge id=":juncMain_39" function="internal">
        <lane id=":juncMain_39_0" index="0" disallow="pedestrian" speed="6.86" length="4.82" shape="609.80,684.16 611.54,685.21 614.30,685.60"/>
    </edge>
    <edge id=":juncMain_40" function="internal">
        <lane id=":juncMain_40_0" index="0" disallow="pedestrian" speed="7.64" length="4.54" shape="609.80,685.07 610.14,685.21 614.30,685.60"/>
    </edge>
    <edge id=":juncMain_41" function="internal">
        <lane id=":juncMain_41_0" index="0" disallow="pedestrian" speed="8.38" length="11.75" shape="603.20,682.72 604.78,684.02 608.74,685.21 614.30,685.60"/>
    </edge>
    <edge id=":juncMain_42" function="internal">
        <lane id=":juncMain_42_0" index="0" disallow="pedestrian" speed="11.60" length="19.63" shape="600.00,690.47 597.62,696.02 592.66,700.21 585.70,701.60"/>
    </edge>
    <edge id=":juncMain_43" function="internal">
        <lane id=":juncMain_43_0" index="0" disallow="pedestrian" speed="3.65" length="2.34" shape="600.00,680.90 599.20,680.50 598.40,679.30"/>
    </edge>
    <edge id=":juncMain_22" function="internal">
        <lane id=":juncMain_22_0" index="0" disallow="pedestrian" speed="6.86" length="5.34" shape="585.70,685.60 588.46,685.21 590.42,684.03 590.56,683.80"/>
        <lane id=":juncMain_22_1" index="1" disallow="pedestrian" speed="7.64" length="7.67" shape="585.70,685.60 589.86,685.21 592.83,684.03 593.03,683.80"/>
        <lane id=":juncMain_22_2" index="2" disallow="pedestrian" speed="7.64" length="8.30" shape="585.70,688.80 588.46,688.21 590.42,686.42 591.47,683.80"/>
        <lane id=":juncMain_22_3" index="3" disallow="pedestrian" speed="8.29" length="10.72" shape="585.70,688.80 589.86,688.21 592.83,686.42 594.40,683.80"/>
    </edge>
    <edge id=":juncMain_26" function="internal">
        <lane id=":juncMain_26_0" index="0" disallow="pedestrian" speed="17.42" length="28.60" shape="585.70,688.80 614.30,688.80"/>
        <lane id=":juncMain_26_1" index="1" disallow="pedestrian" speed="17.42" length="28.60" shape="585.70,692.00 614.30,692.00"/>
        <lane id=":juncMain_26_2" index="2" disallow="pedestrian" speed="17.42" length="28.60" shape="585.70,695.20 614.30,695.20"/>
        <lane id=":juncMain_26_3" index="3" disallow="pedestrian" speed="17.42" length="28.60" shape="585.70,698.40 614.30,698.40"/>
    </edge>
    <edge id=":juncMain_44" function="internal">
        <lane id=":juncMain_44_0" index="0" disallow="pedestrian" speed="6.86" length="4.82" shape="590.56,683.80 591.61,682.06 592.00,679.30"/>
    </edge>
    <edge id=":juncMain_45" function="internal">
        <lane id=":juncMain_45_0" index="0" disallow="pedestrian" speed="7.64" length="5.17" shape="593.03,683.80 594.61,682.06 595.20,679.30"/>
    </edge>
    <edge id=":juncMain_46" function="internal">
        <lane id=":juncMain_46_0" index="0" disallow="pedestrian" speed="7.64" length="4.54" shape="591.47,683.80 591.61,683.46 592.00,679.30"/>
    </edge>
    <edge id=":juncMain_47" function="internal">
        <lane id=":juncMain_47_0" index="0" disallow="pedestrian" speed="8.29" length="4.60" shape="594.40,683.80 594.61,683.46 595.20,679.30"/>
    </edge>
    <edge id=":juncMain_c0" function="crossing" crossingEdges="edgeN_I edgeN_O">
        <lane id=":juncMain_c0_0" index="0" allow="pedestrian" speed="1.00" length="19.20" width="4.50" shape="609.60,718.45 590.40,718.45"/>
    </edge>
    <edge id=":juncMain_c1" function="crossing" crossingEdges="edgeE_I edgeE_O">
        <lane id=":juncMain_c1_0" index="0" allow="pedestrian" speed="1.00" length="32.00" width="4.50" shape="612.05,684.00 612.05,716.00"/>
    </edge>
    <edge id=":juncMain_c2" function="crossing" crossingEdges="edgeS_I edgeS_O">
        <lane id=":juncMain_c2_0" index="0" allow="pedestrian" speed="1.00" length="19.20" width="4.50" shape="590.40,681.55 609.60,681.55"/>
    </edge>
    <edge id=":juncMain_c3" function="crossing" crossingEdges="edgeW_I edgeW_O">
        <lane id=":juncMain_c3_0" index="0" allow="pedestrian" speed="1.00" length="32.00" width="4.50" shape="587.95,716.00 587.95,684.00"/>
    </edge>
    <edge id=":juncMain_w0" function="walkingarea">
        <lane id=":juncMain_w0_0" index="0" allow="pedestrian" speed="1.00" length="3.82" width="4.50" shape="585.70,716.00 585.70,719.20 587.20,720.70 590.40,720.70 590.27,719.26 589.88,718.09 589.22,717.17 588.31,716.52 587.14,716.13"/>
    </edge>
    <edge id=":juncMain_w1" function="walkingarea">
        <lane id=":juncMain_w1_0" index="0" allow="pedestrian" speed="1.00" length="3.82" width="4.50" shape="609.60,720.70 612.80,720.70 614.30,719.20 614.30,716.00 612.86,716.13 611.69,716.52 610.77,717.17 610.12,718.09 609.73,719.26"/>
    </edge>
    <edge id=":juncMain_w2" function="walkingarea">
        <lane id=":juncMain_w2_0" index="0" allow="pedestrian" speed="1.00" length="3.82" width="4.50" shape="614.30,684.00 614.30,680.80 612.80,679.30 609.60,679.30 609.73,680.74 610.12,681.91 610.78,682.83 611.69,683.48 612.86,683.87"/>
    </edge>
    <edge id=":juncMain_w3" function="walkingarea">
        <lane id=":juncMain_w3_0" index="0" allow="pedestrian" speed="1.00" length="3.82" width="4.50" shape="590.40,679.30 587.20,679.30 585.70,680.80 585.70,684.00 587.14,683.87 588.31,683.48 589.23,682.83 589.88,681.91 590.27,680.74"/>
    </edge>
    <edge id=":juncN_0" function="internal">
        <lane id=":juncN_0_0" index="0" disallow="pedestrian" speed="3.65" length="4.67" shape="601.60,1000.00 600.80,1001.20 600.00,1001.60 599.20,1001.20 598.40,1000.00"/>
    </edge>
    <edge id=":juncN_w0" function="walkingarea">
        <lane id=":juncN_w0_0" index="0" allow="pedestrian" speed="1.00" length="22.40" width="3.20" shape="590.40,1000.00 587.20,1000.00 612.80,1000.00 609.60,1000.00"/>
    </edge>
    <edge id=":juncS_0" function="internal">
        <lane id=":juncS_0_0" index="0" disallow="pedestrian" speed="3.65" length="4.67" shape="598.40,0.00 599.20,-1.20 600.00,-1.60 600.80,-1.20 601.60,0.00"/>
    </edge>
    <edge id=":juncS_w0" function="walkingarea">
        <lane id=":juncS_w0_0" index="0" allow="pedestrian" speed="1.00" length="22.40" width="3.20" shape="609.60,0.00 612.80,0.00 587.20,0.00 590.40,0.00"/>
    </edge>
    <edge id=":juncW_0" function="internal">
        <lane id=":juncW_0_0" index="0" disallow="pedestrian" speed="3.65" length="4.67" shape="0.00,701.60 -1.20,700.80 -1.60,700.00 -1.20,699.20 0.00,698.40"/>
    </edge>
    <edge id=":juncW_w0" function="walkingarea">
        <lane id=":juncW_w0_0" index="0" allow="pedestrian" speed="1.00" length="35.20" width="3.20" shape="0.00,684.00 0.00,680.80 0.00,719.20 0.00,716.00"/>
    </edge>

    <edge id="edgeE_I" from="juncMain" to="juncE" priority="46">
        <lane id="edgeE_I_0" index="0" allow="pedestrian" speed="19.35" length="785.70" shape="614.30,682.40 1400.00,682.40"/>
        <lane id="edgeE_I_1" index="1" disallow="pedestrian" speed="19.35" length="785.70" shape="614.30,685.60 1400.00,685.60"/>
        <lane id="edgeE_I_2" index="2" disallow="pedestrian" speed="19.35" length="785.70" shape="614.30,688.80 1400.00,688.80"/>
        <lane id="edgeE_I_3" index="3" disallow="pedestrian" speed="19.35" length="785.70" shape="614.30,692.00 1400.00,692.00"/>
        <lane id="edgeE_I_4" index="4" disallow="pedestrian" speed="19.35" length="785.70" shape="614.30,695.20 1400.00,695.20"/>
        <lane id="edgeE_I_5" index="5" disallow="pedestrian" speed="19.35" length="785.70" shape="614.30,698.40 1400.00,698.40"/>
    </edge>
    <edge id="edgeE_O" from="juncE" to="juncMain" priority="78">
        <lane id="edgeE_O_0" index="0" allow="pedestrian" speed="15.48" length="785.70" shape="1400.00,717.60 614.30,717.60"/>
        <lane id="edgeE_O_1" index="1" disallow="pedestrian" speed="15.48" length="785.70" shape="1400.00,714.40 614.30,714.40"/>
        <lane id="edgeE_O_2" index="2" disallow="pedestrian" speed="15.48" length="785.70" shape="1400.00,711.20 614.30,711.20"/>
        <lane id="edgeE_O_3" index="3" disallow="pedestrian" speed="15.48" length="785.70" shape="1400.00,708.00 614.30,708.00"/>
        <lane id="edgeE_O_4" index="4" disallow="pedestrian" speed="15.48" length="785.70" shape="1400.00,704.80 614.30,704.80"/>
        <lane id="edgeE_O_5" index="5" disallow="pedestrian" speed="15.48" length="785.70" shape="1400.00,701.60 614.30,701.60"/>
    </edge>
    <edge id="edgeN_I" from="juncMain" to="juncN" priority="46">
        <lane id="edgeN_I_0" index="0" allow="pedestrian" speed="26.41" length="279.30" shape="611.20,720.70 611.20,1000.00"/>
        <lane id="edgeN_I_1" index="1" disallow="pedestrian" speed="26.41" length="279.30" shape="608.00,720.70 608.00,1000.00"/>
        <lane id="edgeN_I_2" index="2" disallow="pedestrian" speed="26.41" length="279.30" shape="604.80,720.70 604.80,1000.00"/>
        <lane id="edgeN_I_3" index="3" disallow="pedestrian" speed="26.41" length="279.30" shape="601.60,720.70 601.60,1000.00"/>
    </edge>
    <edge id="edgeN_O" from="juncN" to="juncMain" priority="78">
        <lane id="edgeN_O_0" index="0" allow="pedestrian" speed="22.92" length="279.30" shape="588.80,1000.00 588.80,720.70"/>
        <lane id="edgeN_O_1" index="1" disallow="pedestrian" speed="22.92" length="279.30" shape="592.00,1000.00 592.00,720.70"/>
        <lane id="edgeN_O_2" index="2" disallow="pedestrian" speed="22.92" length="279.30" shape="595.20,1000.00 595.20,720.70"/>
        <lane id="edgeN_O_3" index="3" disallow="pedestrian" speed="22.92" length="279.30" shape="598.40,1000.00 598.40,720.70"/>
    </edge>
    <edge id="edgeS_I" from="juncMain" to="juncS" priority="46">
        <lane id="edgeS_I_0" index="0" allow="pedestrian" speed="26.41" length="679.30" shape="588.80,679.30 588.80,0.00"/>
        <lane id="edgeS_I_1" index="1" disallow="pedestrian" speed="26.41" length="679.30" shape="592.00,679.30 592.00,0.00"/>
        <lane id="edgeS_I_2" index="2" disallow="pedestrian" speed="26.41" length="679.30" shape="595.20,679.30 595.20,0.00"/>
        <lane id="edgeS_I_3" index="3" disallow="pedestrian" speed="26.41" length="679.30" shape="598.40,679.30 598.40,0.00"/>
    </edge>
    <edge id="edgeS_O" from="juncS" to="juncMain" priority="78">
        <lane id="edgeS_O_0" index="0" allow="pedestrian" speed="22.92" length="679.30" shape="611.20,0.00 611.20,679.30"/>
        <lane id="edgeS_O_1" index="1" disallow="pedestrian" speed="22.92" length="679.30" shape="608.00,0.00 608.00,679.30"/>
        <lane id="edgeS_O_2" index="2" disallow="pedestrian" speed="22.92" length="679.30" shape="604.80,0.00 604.80,679.30"/>
        <lane id="edgeS_O_3" index="3" disallow="pedestrian" speed="22.92" length="679.30" shape="601.60,0.00 601.60,679.30"/>
    </edge>
    <edge id="edgeW_I" from="juncMain" to="juncW" priority="46">
        <lane id="edgeW_I_0" index="0" allow="pedestrian" speed="19.35" length="585.70" shape="585.70,717.60 0.00,717.60"/>
        <lane id="edgeW_I_1" index="1" disallow="pedestrian" speed="19.35" length="585.70" shape="585.70,714.40 0.00,714.40"/>
        <lane id="edgeW_I_2" index="2" disallow="pedestrian" speed="19.35" length="585.70" shape="585.70,711.20 0.00,711.20"/>
        <lane id="edgeW_I_3" index="3" disallow="pedestrian" speed="19.35" length="585.70" shape="585.70,708.00 0.00,708.00"/>
        <lane id="edgeW_I_4" index="4" disallow="pedestrian" speed="19.35" length="585.70" shape="585.70,704.80 0.00,704.80"/>
        <lane id="edgeW_I_5" index="5" disallow="pedestrian" speed="19.35" length="585.70" shape="585.70,701.60 0.00,701.60"/>
    </edge>
    <edge id="edgeW_O" from="juncW" to="juncMain" priority="78">
        <lane id="edgeW_O_0" index="0" allow="pedestrian" speed="15.48" length="585.70" shape="0.00,682.40 585.70,682.40"/>
        <lane id="edgeW_O_1" index="1" disallow="pedestrian" speed="15.48" length="585.70" shape="0.00,685.60 585.70,685.60"/>
        <lane id="edgeW_O_2" index="2" disallow="pedestrian" speed="15.48" length="585.70" shape="0.00,688.80 585.70,688.80"/>
        <lane id="edgeW_O_3" index="3" disallow="pedestrian" speed="15.48" length="585.70" shape="0.00,692.00 585.70,692.00"/>
        <lane id="edgeW_O_4" index="4" disallow="pedestrian" speed="15.48" length="585.70" shape="0.00,695.20 585.70,695.20"/>
        <lane id="edgeW_O_5" index="5" disallow="pedestrian" speed="15.48" length="585.70" shape="0.00,698.40 585.70,698.40"/>
    </edge>

    <tlLogic id="juncMain" type="static" programID="0" offset="0">
        <phase duration="35" state="ggGgGggrrrrrrrrggGgGggrrrrrrrrrGrG"/>
        <phase duration="5"  state="ggGgGggrrrrrrrrggGgGggrrrrrrrrrrrr"/>
        <phase duration="5"  state="yyyyyyyrrrrrrrryyyyyyyrrrrrrrrrrrr"/>
        <phase duration="35" state="rrrrrrrggggGGGGrrrrrrrggggGGGGGrGr"/>
        <phase duration="5"  state="rrrrrrrggggGGGGrrrrrrrggggGGGGrrrr"/>
        <phase duration="5"  state="rrrrrrryyyyyyyyrrrrrrryyyyyyyyrrrr"/>
    </tlLogic>

    <junction id="juncE" type="priority" x="1400.00" y="700.00" incLanes="edgeE_I_0 edgeE_I_1 edgeE_I_2 edgeE_I_3 edgeE_I_4 edgeE_I_5" intLanes=":juncE_0_0" shape="1400.00,700.00 1400.00,680.80 1400.00,700.00">
        <request index="0" response="0" foes="0" cont="0"/>
    </junction>
    <junction id="juncMain" type="traffic_light" x="600.00" y="700.00" incLanes="edgeN_O_0 edgeN_O_1 edgeN_O_2 edgeN_O_3 edgeE_O_0 edgeE_O_1 edgeE_O_2 edgeE_O_3 edgeE_O_4 edgeE_O_5 edgeS_O_0 edgeS_O_1 edgeS_O_2 edgeS_O_3 edgeW_O_0 edgeW_O_1 edgeW_O_2 edgeW_O_3 edgeW_O_4 edgeW_O_5 :juncMain_w1_0 :juncMain_w2_0 :juncMain_w3_0 :juncMain_w0_0" intLanes=":juncMain_30_0 :juncMain_31_0 :juncMain_2_0 :juncMain_32_0 :juncMain_4_0 :juncMain_33_0 :juncMain_34_0 :juncMain_35_0 :juncMain_36_0 :juncMain_37_0 :juncMain_38_0 :juncMain_11_0 :juncMain_11_1 :juncMain_11_2 :juncMain_11_3 :juncMain_39_0 :juncMain_40_0 :juncMain_17_0 :juncMain_41_0 :juncMain_19_0 :juncMain_42_0 :juncMain_43_0 :juncMain_44_0 :juncMain_45_0 :juncMain_46_0 :juncMain_47_0 :juncMain_26_0 :juncMain_26_1 :juncMain_26_2 :juncMain_26_3 :juncMain_c0_0 :juncMain_c1_0 :juncMain_c2_0 :juncMain_c3_0" shape="587.20,720.70 612.80,720.70 612.97,719.87 613.18,719.58 613.47,719.37 613.84,719.24 614.30,719.20 614.30,680.80 613.47,680.63 613.18,680.42 612.97,680.13 612.84,679.76 612.80,679.30 587.20,679.30 587.03,680.13 586.82,680.42 586.53,680.63 586.16,680.76 585.70,680.80 585.70,719.20 586.53,719.37 586.82,719.58 587.03,719.87 587.16,720.24">
        <request index="0"  response="1001000000000000000000000000000000" foes="1001000000000000000000000000001010" cont="1"/>
        <request index="1"  response="1001000000000000000000000000000001" foes="1001000000000000000000000000001001" cont="1"/>
        <request index="2"  response="0101000011110000000000000000000000" foes="0101111111111100000111100000001000" cont="0"/>
        <request index="3"  response="1001000000000000000000000000000111" foes="1001000000000000000000000000000111" cont="1"/>
        <request index="4"  response="0101000011110000000000000000000000" foes="0101111111111100000111100000000000" cont="0"/>
        <request index="5"  response="0011000000000010100000000000000000" foes="0011111100000010100111100000000000" cont="1"/>
        <request index="6"  response="0001000000000010100000000000000000" foes="0001000000000010100000000000000000" cont="1"/>
        <request index="7"  response="0011000000000010100000000000000000" foes="0011000000000010100000001000000000" cont="1"/>
        <request index="8"  response="0011000000000010100000000000000000" foes="0011000000000010100000010000000000" cont="1"/>
        <request index="9"  response="0011000000000010100000000010000000" foes="0011000000000010100000000010000000" cont="1"/>
        <request index="10" response="0011000000000010100000000100000000" foes="0011000000000010100000000100000000" cont="1"/>
        <request index="11" response="1010000000000110100000000000110100" foes="1010000000000110100000000000110100" cont="0"/>
        <request index="12" response="1010000000000110100000000000110100" foes="1010000000000110100000000000110100" cont="0"/>
        <request index="13" response="1010000000000110100000000000110100" foes="1010000000000110100000000000110100" cont="0"/>
        <request index="14" response="1010000000000110100000000000110100" foes="1010000000000110100000000000110100" cont="0"/>
        <request index="15" response="0110000000000000000000000000000000" foes="0110000000000001010000000000000000" cont="1"/>
        <request index="16" response="0110000000000000001000000000000000" foes="0110000000000001001000000000000000" cont="1"/>
        <request index="17" response="0101000000000000000000011110000000" foes="0101111100000001000111111111100000" cont="0"/>
        <request index="18" response="0110000000000000111000000000000000" foes="0110000000000000111000000000000000" cont="1"/>
        <request index="19" response="0101000000000000000000011110000000" foes="0101111100000000000111111111100000" cont="0"/>
        <request index="20" response="1100000000000000000000000000010100" foes="1100111100000000000111100000010100" cont="1"/>
        <request index="21" response="0100000000000000000000000000010100" foes="0100000000000000000000000000010100" cont="1"/>
        <request index="22" response="1100000000000000000000000000010100" foes="1100000001000000000000000000010100" cont="1"/>
        <request index="23" response="1100000000000000000000000000010100" foes="1100000010000000000000000000010100" cont="1"/>
        <request index="24" response="1100000000010000000000000000010100" foes="1100000000010000000000000000010100" cont="1"/>
        <request index="25" response="1100000000100000000000000000010100" foes="1100000000100000000000000000010100" cont="1"/>
        <request index="26" response="1010000000000110100000000000110100" foes="1010000000000110100000000000110100" cont="0"/>
        <request index="27" response="1010000000000110100000000000110100" foes="1010000000000110100000000000110100" cont="0"/>
        <request index="28" response="1010000000000110100000000000110100" foes="1010000000000110100000000000110100" cont="0"/>
        <request index="29" response="1010000000000110100000000000110100" foes="1010000000000110100000000000110100" cont="0"/>
        <request index="30" response="0000000000000000000000000000000000" foes="0000000000000010100000011111111111" cont="0"/>
        <request index="31" response="0000000000000000000000000000000000" foes="0000111100000001011111111110100000" cont="0"/>
        <request index="32" response="0000000000000000000000000000000000" foes="0000000011111111111000000000010100" cont="0"/>
        <request index="33" response="0000000000000000000000000000000000" foes="0000111111110100000111100000001011" cont="0"/>
    </junction>
    <junction id="juncN" type="priority" x="600.00" y="1000.00" incLanes="edgeN_I_0 edgeN_I_1 edgeN_I_2 edgeN_I_3" intLanes=":juncN_0_0" shape="600.00,1000.00 612.80,1000.00 600.00,1000.00">
        <request index="0" response="0" foes="0" cont="0"/>
    </junction>
    <junction id="juncS" type="priority" x="600.00" y="0.00" incLanes="edgeS_I_0 edgeS_I_1 edgeS_I_2 edgeS_I_3" intLanes=":juncS_0_0" shape="600.00,0.00 587.20,0.00 600.00,0.00">
        <request index="0" response="0" foes="0" cont="0"/>
    </junction>
    <junction id="juncW" type="priority" x="0.00" y="700.00" incLanes="edgeW_I_0 edgeW_I_1 edgeW_I_2 edgeW_I_3 edgeW_I_4 edgeW_I_5" intLanes=":juncW_0_0" shape="0.00,700.00 0.00,719.20 0.00,700.00">
        <request index="0" response="0" foes="0" cont="0"/>
    </junction>

    <junction id=":juncMain_30_0" type="internal" x="590.20" y="715.84" incLanes=":juncMain_0_0" intLanes=":juncMain_0_1 :juncMain_3_0 :juncMain_11_0 :juncMain_11_1 :juncMain_11_2 :juncMain_11_3 :juncMain_20_0 :juncMain_c0_0 :juncMain_c3_0"/>
    <junction id=":juncMain_31_0" type="internal" x="590.20" y="714.93" incLanes=":juncMain_0_1" intLanes=":juncMain_0_0 :juncMain_3_0 :juncMain_11_0 :juncMain_11_1 :juncMain_11_2 :juncMain_11_3 :juncMain_20_0 :juncMain_c0_0 :juncMain_c3_0"/>
    <junction id=":juncMain_32_0" type="internal" x="596.80" y="717.28" incLanes=":juncMain_3_0 edgeN_O_2" intLanes=":juncMain_0_0 :juncMain_0_1 :juncMain_2_0 :juncMain_11_0 :juncMain_11_1 :juncMain_11_2 :juncMain_11_3 :juncMain_20_0 :juncMain_c0_0 :juncMain_c3_0"/>
    <junction id=":juncMain_33_0" type="internal" x="600.00" y="709.53" incLanes=":juncMain_5_0 edgeS_O_1 edgeS_O_2 edgeS_O_3" intLanes=":juncMain_11_0 :juncMain_11_1 :juncMain_11_2 :juncMain_11_3 :juncMain_15_0 :juncMain_15_1 :juncMain_17_0 :juncMain_18_0 :juncMain_19_0 :juncMain_26_0 :juncMain_26_1 :juncMain_26_2 :juncMain_26_3 :juncMain_c0_0 :juncMain_c1_0"/>
    <junction id=":juncMain_34_0" type="internal" x="600.00" y="719.10" incLanes=":juncMain_6_0 edgeE_O_1 edgeE_O_2 edgeS_O_2 edgeS_O_3" intLanes=":juncMain_7_0 :juncMain_7_1 :juncMain_7_2 :juncMain_7_3 :juncMain_17_0 :juncMain_19_0 :juncMain_c0_0 :juncMain_c0_0"/>
    <junction id=":juncMain_35_0" type="internal" x="609.44" y="716.20" incLanes=":juncMain_7_0" intLanes=":juncMain_6_0 :juncMain_7_2 :juncMain_17_0 :juncMain_19_0 :juncMain_c0_0 :juncMain_c1_0"/>
    <junction id=":juncMain_36_0" type="internal" x="606.97" y="716.20" incLanes=":juncMain_7_1" intLanes=":juncMain_6_0 :juncMain_7_3 :juncMain_17_0 :juncMain_19_0 :juncMain_c0_0 :juncMain_c1_0"/>
    <junction id=":juncMain_37_0" type="internal" x="608.53" y="716.20" incLanes=":juncMain_7_2" intLanes=":juncMain_6_0 :juncMain_7_0 :juncMain_17_0 :juncMain_19_0 :juncMain_c0_0 :juncMain_c1_0"/>
    <junction id=":juncMain_38_0" type="internal" x="605.60" y="716.20" incLanes=":juncMain_7_3" intLanes=":juncMain_6_0 :juncMain_7_1 :juncMain_17_0 :juncMain_19_0 :juncMain_c0_0 :juncMain_c1_0"/>
    <junction id=":juncMain_39_0" type="internal" x="609.80" y="684.16" incLanes=":juncMain_15_0" intLanes=":juncMain_5_0 :juncMain_15_1 :juncMain_18_0 :juncMain_26_0 :juncMain_26_1 :juncMain_26_2 :juncMain_26_3 :juncMain_c1_0 :juncMain_c2_0"/>
    <junction id=":juncMain_40_0" type="internal" x="609.80" y="685.07" incLanes=":juncMain_15_1" intLanes=":juncMain_5_0 :juncMain_15_0 :juncMain_18_0 :juncMain_26_0 :juncMain_26_1 :juncMain_26_2 :juncMain_26_3 :juncMain_c1_0 :juncMain_c2_0"/>
    <junction id=":juncMain_41_0" type="internal" x="603.20" y="682.72" incLanes=":juncMain_18_0 edgeS_O_2" intLanes=":juncMain_5_0 :juncMain_15_0 :juncMain_15_1 :juncMain_17_0 :juncMain_26_0 :juncMain_26_1 :juncMain_26_2 :juncMain_26_3 :juncMain_c1_0 :juncMain_c2_0"/>