<additional>
   <tlLogic id="juncMain" type="static" programID="1" offset="0">
       <phase duration="60.000000" state="ggGGGGGGGGGGGGGGGGGGGGGGgggrrrrrrrrrrrrrrrrrrrrrrrrrrrggGGGGGGGGGGGGGGGGGGGGGGgggrrrrrrrrrrrrrrrrrrrrrrrrrrrrGrG"/>
       <phase duration="5.000000" state="yyyyyyyyyyyyyyyyyyyyyyyyyyyrrrrrrrrrrrrrrrrrrrrrrrrrrryyyyyyyyyyyyyyyyyyyyyyyyyyyrrrrrrrrrrrrrrrrrrrrrrrrrrrrGrG"/>
       <phase duration="60.000000" state="rrrrrrrrrrrrrrrrrrrrrrrrrrrggGGGGGGGGGGGGGGGGGGGGGGgggrrrrrrrrrrrrrrrrrrrrrrrrrrrggGGGGGGGGGGGGGGGGGGGGGGgggGrGr"/>
       <phase duration="5.000000" state="rrrrrrrrrrrrrrrrrrrrrrrrrrryyyyyyyyyyyyyyyyyyyyyyyyyyyrrrrrrrrrrrrrrrrrrrrrrrrrrryyyyyyyyyyyyyyyyyyyyyyyyyyyGrGr"/>
   </tlLogic>
</additional>
