<routes>

    <route id="edgeN_edgeN" edges="edgeN_O edgeN_I" />
    <route id="edgeN_edgeS" edges="edgeN_O edgeS_I" />
    <route id="edgeN_edgeW" edges="edgeN_O edgeW_I" />
    <route id="edgeN_edgeE" edges="edgeN_O edgeE_I" />
    <route id="edgeS_edgeN" edges="edgeS_O edgeN_I" />
    <route id="edgeS_edgeS" edges="edgeS_O edgeS_I" />
    <route id="edgeS_edgeW" edges="edgeS_O edgeW_I" />
    <route id="edgeS_edgeE" edges="edgeS_O edgeE_I" />
    <route id="edgeW_edgeN" edges="edgeW_O edgeN_I" />
    <route id="edgeW_edgeS" edges="edgeW_O edgeS_I" />
    <route id="edgeW_edgeW" edges="edgeW_O edgeW_I" />
    <route id="edgeW_edgeE" edges="edgeW_O edgeE_I" />
    <route id="edgeE_edgeN" edges="edgeE_O edgeN_I" />
    <route id="edgeE_edgeS" edges="edgeE_O edgeS_I" />
    <route id="edgeE_edgeW" edges="edgeE_O edgeW_I" />
    <route id="edgeE_edgeE" edges="edgeE_O edgeE_I" />
    
   <vType id="vehicleS_0" length="5.000000" accel="0.800000" decel="4.500000" sigma="0.5" minGap="2.500000" maxSpeed="25.000000" guiShape="passenger" />
   <vehicle id="straightS_0" type="vehicleS_0" route="edgeS_edgeN" depart="0" departLane="2" />

   <vType id="vehicleW_1" length="5.000000" accel="0.800000" decel="4.500000" sigma="0.5" minGap="2.500000" maxSpeed="25.000000" guiShape="passenger" />
   <vehicle id="straightW_1" type="vehicleW_1" route="edgeW_edgeE" depart="0" departLane="0" />

   <vType id="vehicleE_2" length="5.000000" accel="0.800000" decel="4.500000" sigma="0.5" minGap="2.500000" maxSpeed="25.000000" guiShape="passenger" />
   <vehicle id="straightE_2" type="vehicleE_2" route="edgeE_edgeW" depart="2" departLane="0" />

   <vType id="vehicleN_3" length="5.000000" accel="0.800000" decel="4.500000" sigma="0.5" minGap="2.500000" maxSpeed="25.000000" guiShape="passenger" />
   <vehicle id="leftN_3" type="vehicleN_3" route="edgeN_edgeE" depart="3" departLane="3" />

   <vType id="vehicleW_4" length="5.000000" accel="0.800000" decel="4.500000" sigma="0.5" minGap="2.500000" maxSpeed="25.000000" guiShape="passenger" />
   <vehicle id="leftW_4" type="vehicleW_4" route="edgeW_edgeN" depart="5" departLane="2" />

   <vType id="vehicleW_5" length="5.000000" accel="0.800000" decel="4.500000" sigma="0.5" minGap="2.500000" maxSpeed="25.000000" guiShape="passenger" />
   <vehicle id="straightW_5" type="vehicleW_5" route="edgeW_edgeE" depart="6" departLane="0" />

   <vType id="vehicleN_6" length="5.000000" accel="0.800000" decel="4.500000" sigma="0.5" minGap="2.500000" maxSpeed="25.000000" guiShape="passenger" />
   <vehicle id="rightN_6" type="vehicleN_6" route="edgeN_edgeW" depart="7" departLane="0" />

   <vType id="vehicleS_7" length="5.000000" accel="0.800000" decel="4.500000" sigma="0.5" minGap="2.500000" maxSpeed="25.000000" guiShape="passenger" />
   <vehicle id="straightS_7" type="vehicleS_7" route="edgeS_edgeN" depart="8" departLane="2" />

   <vType id="vehicleS_8" length="5.000000" accel="0.800000" decel="4.500000" sigma="0.5" minGap="2.500000" maxSpeed="25.000000" guiShape="passenger" />
   <vehicle id="leftS_8" type="vehicleS_8" route="edgeS_edgeW" depart="12" departLane="3" />

   <vType id="vehicleW_9" length="5.000000" accel="0.800000" decel="4.500000" sigma="0.5" minGap="2.500000" maxSpeed="25.000000" guiShape="passenger" />
   <vehicle id="uturnW_9" type="vehicleW_9" route="edgeW_edgeW" depart="14" departLane="3" />

   <vType id="vehicleN_10" length="5.000000" accel="0.800000" decel="4.500000" sigma="0.5" minGap="2.500000" maxSpeed="25.000000" guiShape="passenger" />
   <vehicle id="leftN_10" type="vehicleN_10" route="edgeN_edgeE" depart="15" departLane="2" />

   <vType id="vehicleW_11" length="5.000000" accel="0.800000" decel="4.500000" sigma="0.5" minGap="2.500000" maxSpeed="25.000000" guiShape="passenger" />
   <vehicle id="rightW_11" type="vehicleW_11" route="edgeW_edgeS" depart="15" departLane="0" />

   <vType id="vehicleE_12" length="5.000000" accel="0.800000" decel="4.500000" sigma="0.5" minGap="2.500000" maxSpeed="25.000000" guiShape="passenger" />
   <vehicle id="straightE_12" type="vehicleE_12" route="edgeE_edgeW" depart="16" departLane="1" />

   <vType id="vehicleE_13" length="5.000000" accel="0.800000" decel="4.500000" sigma="0.5" minGap="2.500000" maxSpeed="25.000000" guiShape="passenger" />
   <vehicle id="rightE_13" type="vehicleE_13" route="edgeE_edgeN" depart="17" departLane="0" />

   <vType id="vehicleN_14" length="5.000000" accel="0.800000" decel="4.500000" sigma="0.5" minGap="2.500000" maxSpeed="25.000000" guiShape="passenger" />
   <vehicle id="straightN_14" type="vehicleN_14" route="edgeN_edgeS" depart="18" departLane="1" />

   <vType id="vehicleN_15" length="5.000000" accel="0.800000" decel="4.500000" sigma="0.5" minGap="2.500000" maxSpeed="25.000000" guiShape="passenger" />
   <vehicle id="leftN_15" type="vehicleN_15" route="edgeN_edgeE" depart="21" departLane="2" />

   <vType id="vehicleN_16" length="5.000000" accel="0.800000" decel="4.500000" sigma="0.5" minGap="2.500000" maxSpeed="25.000000" guiShape="passenger" />
   <vehicle id="leftN_16" type="vehicleN_16" route="edgeN_edgeE" depart="22" departLane="3" />

   <vType id="vehicleN_17" length="5.000000" accel="0.800000" decel="4.500000" sigma="0.5" minGap="2.500000" maxSpeed="25.000000" guiShape="passenger" />
   <vehicle id="rightN_17" type="vehicleN_17" route="edgeN_edgeW" depart="23" departLane="0" />

   <vType id="vehicleE_18" length="5.000000" accel="0.800000" decel="4.500000" sigma="0.5" minGap="2.500000" maxSpeed="25.000000" guiShape="passenger" />
   <vehicle id="straightE_18" type="vehicleE_18" route="edgeE_edgeW" depart="23" departLane="0" />

   <vType id="vehicleS_19" length="5.000000" accel="0.800000" decel="4.500000" sigma="0.5" minGap="2.500000" maxSpeed="25.000000" guiShape="passenger" />
   <vehicle id="leftS_19" type="vehicleS_19" route="edgeS_edgeW" depart="24" departLane="2" />

   <vType id="vehicleW_20" length="5.000000" accel="0.800000" decel="4.500000" sigma="0.5" minGap="2.500000" maxSpeed="25.000000" guiShape="passenger" />
   <vehicle id="uturnW_20" type="vehicleW_20" route="edgeW_edgeW" depart="24" departLane="3" />

   <vType id="vehicleN_21" length="5.000000" accel="0.800000" decel="4.500000" sigma="0.5" minGap="2.500000" maxSpeed="25.000000" guiShape="passenger" />
   <vehicle id="straightN_21" type="vehicleN_21" route="edgeN_edgeS" depart="25" departLane="1" />

   <vType id="vehicleS_22" length="5.000000" accel="0.800000" decel="4.500000" sigma="0.5" minGap="2.500000" maxSpeed="25.000000" guiShape="passenger" />
   <vehicle id="straightS_22" type="vehicleS_22" route="edgeS_edgeN" depart="25" departLane="2" />

   <vType id="vehicleW_23" length="5.000000" accel="0.800000" decel="4.500000" sigma="0.5" minGap="2.500000" maxSpeed="25.000000" guiShape="passenger" />
   <vehicle id="straightW_23" type="vehicleW_23" route="edgeW_edgeE" depart="26" departLane="2" />

   <vType id="vehicleN_24" length="5.000000" accel="0.800000" decel="4.500000" sigma="0.5" minGap="2.500000" maxSpeed="25.000000" guiShape="passenger" />
   <vehicle id="straightN_24" type="vehicleN_24" route="edgeN_edgeS" depart="27" departLane="2" />

   <vType id="vehicleS_25" length="5.000000" accel="0.800000" decel="4.500000" sigma="0.5" minGap="2.500000" maxSpeed="25.000000" guiShape="passenger" />
   <vehicle id="leftS_25" type="vehicleS_25" route="edgeS_edgeW" depart="27" departLane="2" />

   <vType id="vehicleS_26" length="5.000000" accel="0.800000" decel="4.500000" sigma="0.5" minGap="2.500000" maxSpeed="25.000000" guiShape="passenger" />
   <vehicle id="leftS_26" type="vehicleS_26" route="edgeS_edgeW" depart="28" departLane="3" />

   <vType id="vehicleW_27" length="5.000000" accel="0.800000" decel="4.500000" sigma="0.5" minGap="2.500000" maxSpeed="25.000000" guiShape="passenger" />
   <vehicle id="straightW_27" type="vehicleW_27" route="edgeW_edgeE" depart="30" departLane="0" />

   <vType id="vehicleN_28" length="5.000000" accel="0.800000" decel="4.500000" sigma="0.5" minGap="2.500000" maxSpeed="25.000000" guiShape="passenger" />
   <vehicle id="straightN_28" type="vehicleN_28" route="edgeN_edgeS" depart="31" departLane="1" />

   <vType id="vehicleW_29" length="5.000000" accel="0.800000" decel="4.500000" sigma="0.5" minGap="2.500000" maxSpeed="25.000000" guiShape="passenger" />
   <vehicle id="uturnW_29" type="vehicleW_29" route="edgeW_edgeW" depart="32" departLane="3" />

   <vType id="vehicleE_30" length="5.000000" accel="0.800000" decel="4.500000" sigma="0.5" minGap="2.500000" maxSpeed="25.000000" guiShape="passenger" />
   <vehicle id="leftE_30" type="vehicleE_30" route="edgeE_edgeS" depart="32" departLane="2" />

   <vType id="vehicleE_31" length="5.000000" accel="0.800000" decel="4.500000" sigma="0.5" minGap="2.500000" maxSpeed="25.000000" guiShape="passenger" />
   <vehicle id="straightE_31" type="vehicleE_31" route="edgeE_edgeW" depart="34" departLane="2" />

   <vType id="vehicleS_32" length="5.000000" accel="0.800000" decel="4.500000" sigma="0.5" minGap="2.500000" maxSpeed="25.000000" guiShape="passenger" />
   <vehicle id="straightS_32" type="vehicleS_32" route="edgeS_edgeN" depart="35" departLane="2" />

   <vType id="vehicleW_33" length="5.000000" accel="0.800000" decel="4.500000" sigma="0.5" minGap="2.500000" maxSpeed="25.000000" guiShape="passenger" />
   <vehicle id="leftW_33" type="vehicleW_33" route="edgeW_edgeN" depart="36" departLane="2" />

   <vType id="vehicleW_34" length="5.000000" accel="0.800000" decel="4.500000" sigma="0.5" minGap="2.500000" maxSpeed="25.000000" guiShape="passenger" />
   <vehicle id="uturnW_34" type="vehicleW_34" route="edgeW_edgeW" depart="37" departLane="3" />

   <vType id="vehicleE_35" length="5.000000" accel="0.800000" decel="4.500000" sigma="0.5" minGap="2.500000" maxSpeed="25.000000" guiShape="passenger" />
   <vehicle id="uturnE_35" type="vehicleE_35" route="edgeE_edgeE" depart="37" departLane="3" />

   <vType id="vehicleS_36" length="5.000000" accel="0.800000" decel="4.500000" sigma="0.5" minGap="2.500000" maxSpeed="25.000000" guiShape="passenger" />
   <vehicle id="rightS_36" type="vehicleS_36" route="edgeS_edgeE" depart="38" departLane="0" />

   <vType id="vehicleN_37" length="5.000000" accel="0.800000" decel="4.500000" sigma="0.5" minGap="2.500000" maxSpeed="25.000000" guiShape="passenger" />
   <vehicle id="uturnN_37" type="vehicleN_37" route="edgeN_edgeN" depart="39" departLane="3" />

   <vType id="vehicleS_38" length="5.000000" accel="0.800000" decel="4.500000" sigma="0.5" minGap="2.500000" maxSpeed="25.000000" guiShape="passenger" />
   <vehicle id="leftS_38" type="vehicleS_38" route="edgeS_edgeW" depart="40" departLane="3" />

   <vType id="vehicleE_39" length="5.000000" accel="0.800000" decel="4.500000" sigma="0.5" minGap="2.500000" maxSpeed="25.000000" guiShape="passenger" />
   <vehicle id="uturnE_39" type="vehicleE_39" route="edgeE_edgeE" depart="41" departLane="3" />

   <vType id="vehicleN_40" length="5.000000" accel="0.800000" decel="4.500000" sigma="0.5" minGap="2.500000" maxSpeed="25.000000" guiShape="passenger" />
   <vehicle id="rightN_40" type="vehicleN_40" route="edgeN_edgeW" depart="42" departLane="0" />

   <vType id="vehicleS_41" length="5.000000" accel="0.800000" decel="4.500000" sigma="0.5" minGap="2.500000" maxSpeed="25.000000" guiShape="passenger" />
   <vehicle id="uturnS_41" type="vehicleS_41" route="edgeS_edgeS" depart="43" departLane="3" />

   <vType id="vehicleN_42" length="5.000000" accel="0.800000" decel="4.500000" sigma="0.5" minGap="2.500000" maxSpeed="25.000000" guiShape="passenger" />
   <vehicle id="rightN_42" type="vehicleN_42" route="edgeN_edgeW" depart="44" departLane="0" />

   <vType id="vehicleW_43" length="5.000000" accel="0.800000" decel="4.500000" sigma="0.5" minGap="2.500000" maxSpeed="25.000000" guiShape="passenger" />
   <vehicle id="rightW_43" type="vehicleW_43" route="edgeW_edgeS" depart="45" departLane="0" />

   <vType id="vehicleN_44" length="5.000000" accel="0.800000" decel="4.500000" sigma="0.5" minGap="2.500000" maxSpeed="25.000000" guiShape="passenger" />
   <vehicle id="uturnN_44" type="vehicleN_44" route="edgeN_edgeN" depart="50" departLane="3" />

   <vType id="vehicleS_45" length="5.000000" accel="0.800000" decel="4.500000" sigma="0.5" minGap="2.500000" maxSpeed="25.000000" guiShape="passenger" />
   <vehicle id="leftS_45" type="vehicleS_45" route="edgeS_edgeW" depart="50" departLane="3" />

   <vType id="vehicleN_46" length="5.000000" accel="0.800000" decel="4.500000" sigma="0.5" minGap="2.500000" maxSpeed="25.000000" guiShape="passenger" />
   <vehicle id="rightN_46" type="vehicleN_46" route="edgeN_edgeW" depart="51" departLane="0" />

   <vType id="vehicleE_47" length="5.000000" accel="0.800000" decel="4.500000" sigma="0.5" minGap="2.500000" maxSpeed="25.000000" guiShape="passenger" />
   <vehicle id="leftE_47" type="vehicleE_47" route="edgeE_edgeS" depart="53" departLane="3" />

   <vType id="vehicleS_48" length="5.000000" accel="0.800000" decel="4.500000" sigma="0.5" minGap="2.500000" maxSpeed="25.000000" guiShape="passenger" />
   <vehicle id="straightS_48" type="vehicleS_48" route="edgeS_edgeN" depart="58" departLane="0" />

   <vType id="vehicleW_49" length="5.000000" accel="0.800000" decel="4.500000" sigma="0.5" minGap="2.500000" maxSpeed="25.000000" guiShape="passenger" />
   <vehicle id="straightW_49" type="vehicleW_49" route="edgeW_edgeE" depart="58" departLane="1" />

   <vType id="vehicleS_50" length="5.000000" accel="0.800000" decel="4.500000" sigma="0.5" minGap="2.500000" maxSpeed="25.000000" guiShape="passenger" />
   <vehicle id="straightS_50" type="vehicleS_50" route="edgeS_edgeN" depart="61" departLane="1" />

   <vType id="vehicleN_51" length="5.000000" accel="0.800000" decel="4.500000" sigma="0.5" minGap="2.500000" maxSpeed="25.000000" guiShape="passenger" />
   <vehicle id="straightN_51" type="vehicleN_51" route="edgeN_edgeS" depart="66" departLane="1" />

   <vType id="vehicleN_52" length="5.000000" accel="0.800000" decel="4.500000" sigma="0.5" minGap="2.500000" maxSpeed="25.000000" guiShape="passenger" />
   <vehicle id="leftN_52" type="vehicleN_52" route="edgeN_edgeE" depart="68" departLane="2" />

   <vType id="vehicleS_53" length="5.000000" accel="0.800000" decel="4.500000" sigma="0.5" minGap="2.500000" maxSpeed="25.000000" guiShape="passenger" />
   <vehicle id="leftS_53" type="vehicleS_53" route="edgeS_edgeW" depart="69" departLane="2" />

   <vType id="vehicleS_54" length="5.000000" accel="0.800000" decel="4.500000" sigma="0.5" minGap="2.500000" maxSpeed="25.000000" guiShape="passenger" />
   <vehicle id="straightS_54" type="vehicleS_54" route="edgeS_edgeN" depart="71" departLane="1" />

   <vType id="vehicleN_55" length="5.000000" accel="0.800000" decel="4.500000" sigma="0.5" minGap="2.500000" maxSpeed="25.000000" guiShape="passenger" />
   <vehicle id="rightN_55" type="vehicleN_55" route="edgeN_edgeW" depart="72" departLane="0" />

   <vType id="vehicleE_56" length="5.000000" accel="0.800000" decel="4.500000" sigma="0.5" minGap="2.500000" maxSpeed="25.000000" guiShape="passenger" />
   <vehicle id="rightE_56" type="vehicleE_56" route="edgeE_edgeN" depart="72" departLane="0" />

   <vType id="vehicleW_57" length="5.000000" accel="0.800000" decel="4.500000" sigma="0.5" minGap="2.500000" maxSpeed="25.000000" guiShape="passenger" />
   <vehicle id="uturnW_57" type="vehicleW_57" route="edgeW_edgeW" depart="73" departLane="3" />

   <vType id="vehicleE_58" length="5.000000" accel="0.800000" decel="4.500000" sigma="0.5" minGap="2.500000" maxSpeed="25.000000" guiShape="passenger" />
   <vehicle id="uturnE_58" type="vehicleE_58" route="edgeE_edgeE" depart="76" departLane="3" />

   <vType id="vehicleS_59" length="5.000000" accel="0.800000" decel="4.500000" sigma="0.5" minGap="2.500000" maxSpeed="25.000000" guiShape="passenger" />
   <vehicle id="uturnS_59" type="vehicleS_59" route="edgeS_edgeS" depart="77" departLane="3" />

   <vType id="vehicleW_60" length="5.000000" accel="0.800000" decel="4.500000" sigma="0.5" minGap="2.500000" maxSpeed="25.000000" guiShape="passenger" />
   <vehicle id="uturnW_60" type="vehicleW_60" route="edgeW_edgeW" depart="78" departLane="3" />

   <vType id="vehicleN_61" length="5.000000" accel="0.800000" decel="4.500000" sigma="0.5" minGap="2.500000" maxSpeed="25.000000" guiShape="passenger" />
   <vehicle id="leftN_61" type="vehicleN_61" route="edgeN_edgeE" depart="80" departLane="3" />

   <vType id="vehicleW_62" length="5.000000" accel="0.800000" decel="4.500000" sigma="0.5" minGap="2.500000" maxSpeed="25.000000" guiShape="passenger" />
   <vehicle id="rightW_62" type="vehicleW_62" route="edgeW_edgeS" depart="83" departLane="0" />

   <vType id="vehicleS_63" length="5.000000" accel="0.800000" decel="4.500000" sigma="0.5" minGap="2.500000" maxSpeed="25.000000" guiShape="passenger" />
   <vehicle id="leftS_63" type="vehicleS_63" route="edgeS_edgeW" depart="85" departLane="3" />

   <vType id="vehicleW_64" length="5.000000" accel="0.800000" decel="4.500000" sigma="0.5" minGap="2.500000" maxSpeed="25.000000" guiShape="passenger" />
   <vehicle id="leftW_64" type="vehicleW_64" route="edgeW_edgeN" depart="85" departLane="2" />

   <vType id="vehicleS_65" length="5.000000" accel="0.800000" decel="4.500000" sigma="0.5" minGap="2.500000" maxSpeed="25.000000" guiShape="passenger" />
   <vehicle id="leftS_65" type="vehicleS_65" route="edgeS_edgeW" depart="86" departLane="2" />

   <vType id="vehicleW_66" length="5.000000" accel="0.800000" decel="4.500000" sigma="0.5" minGap="2.500000" maxSpeed="25.000000" guiShape="passenger" />
   <vehicle id="rightW_66" type="vehicleW_66" route="edgeW_edgeS" depart="86" departLane="0" />

   <vType id="vehicleE_67" length="5.000000" accel="0.800000" decel="4.500000" sigma="0.5" minGap="2.500000" maxSpeed="25.000000" guiShape="passenger" />
   <vehicle id="leftE_67" type="vehicleE_67" route="edgeE_edgeS" depart="90" departLane="3" />

   <vType id="vehicleN_68" length="5.000000" accel="0.800000" decel="4.500000" sigma="0.5" minGap="2.500000" maxSpeed="25.000000" guiShape="passenger" />
   <vehicle id="leftN_68" type="vehicleN_68" route="edgeN_edgeE" depart="95" departLane="3" />

   <vType id="vehicleN_69" length="5.000000" accel="0.800000" decel="4.500000" sigma="0.5" minGap="2.500000" maxSpeed="25.000000" guiShape="passenger" />
   <vehicle id="leftN_69" type="vehicleN_69" route="edgeN_edgeE" depart="98" departLane="2" />

   <vType id="vehicleN_70" length="5.000000" accel="0.800000" decel="4.500000" sigma="0.5" minGap="2.500000" maxSpeed="25.000000" guiShape="passenger" />
   <vehicle id="uturnN_70" type="vehicleN_70" route="edgeN_edgeN" depart="99" departLane="3" />

   <vType id="vehicleS_71" length="5.000000" accel="0.800000" decel="4.500000" sigma="0.5" minGap="2.500000" maxSpeed="25.000000" guiShape="passenger" />
   <vehicle id="rightS_71" type="vehicleS_71" route="edgeS_edgeE" depart="99" departLane="0" />

   <vType id="vehicleN_72" length="5.000000" accel="0.800000" decel="4.500000" sigma="0.5" minGap="2.500000" maxSpeed="25.000000" guiShape="passenger" />
   <vehicle id="leftN_72" type="vehicleN_72" route="edgeN_edgeE" depart="100" departLane="3" />

   <vType id="vehicleS_73" length="5.000000" accel="0.800000" decel="4.500000" sigma="0.5" minGap="2.500000" maxSpeed="25.000000" guiShape="passenger" />
   <vehicle id="straightS_73" type="vehicleS_73" route="edgeS_edgeN" depart="103" departLane="0" />

   <vType id="vehicleE_74" length="5.000000" accel="0.800000" decel="4.500000" sigma="0.5" minGap="2.500000" maxSpeed="25.000000" guiShape="passenger" />
   <vehicle id="straightE_74" type="vehicleE_74" route="edgeE_edgeW" depart="103" departLane="2" />

   <vType id="vehicleW_75" length="5.000000" accel="0.800000" decel="4.500000" sigma="0.5" minGap="2.500000" maxSpeed="25.000000" guiShape="passenger" />
   <vehicle id="rightW_75" type="vehicleW_75" route="edgeW_edgeS" depart="104" departLane="0" />

   <vType id="vehicleN_76" length="5.000000" accel="0.800000" decel="4.500000" sigma="0.5" minGap="2.500000" maxSpeed="25.000000" guiShape="passenger" />
   <vehicle id="uturnN_76" type="vehicleN_76" route="edgeN_edgeN" depart="105" departLane="3" />

   <vType id="vehicleW_77" length="5.000000" accel="0.800000" decel="4.500000" sigma="0.5" minGap="2.500000" maxSpeed="25.000000" guiShape="passenger" />
   <vehicle id="rightW_77" type="vehicleW_77" route="edgeW_edgeS" depart="110" departLane="0" />

   <vType id="vehicleS_78" length="5.000000" accel="0.800000" decel="4.500000" sigma="0.5" minGap="2.500000" maxSpeed="25.000000" guiShape="passenger" />
   <vehicle id="uturnS_78" type="vehicleS_78" route="edgeS_edgeS" depart="114" departLane="3" />

   <vType id="vehicleW_79" length="5.000000" accel="0.800000" decel="4.500000" sigma="0.5" minGap="2.500000" maxSpeed="25.000000" guiShape="passenger" />
   <vehicle id="uturnW_79" type="vehicleW_79" route="edgeW_edgeW" depart="114" departLane="3" />

   <vType id="vehicleE_80" length="5.000000" accel="0.800000" decel="4.500000" sigma="0.5" minGap="2.500000" maxSpeed="25.000000" guiShape="passenger" />
   <vehicle id="uturnE_80" type="vehicleE_80" route="edgeE_edgeE" depart="114" departLane="3" />

   <vType id="vehicleE_81" length="5.000000" accel="0.800000" decel="4.500000" sigma="0.5" minGap="2.500000" maxSpeed="25.000000" guiShape="passenger" />
   <vehicle id="straightE_81" type="vehicleE_81" route="edgeE_edgeW" depart="115" departLane="2" />

   <vType id="vehicleE_82" length="5.000000" accel="0.800000" decel="4.500000" sigma="0.5" minGap="2.500000" maxSpeed="25.000000" guiShape="passenger" />
   <vehicle id="leftE_82" type="vehicleE_82" route="edgeE_edgeS" depart="116" departLane="2" />

   <vType id="vehicleS_83" length="5.000000" accel="0.800000" decel="4.500000" sigma="0.5" minGap="2.500000" maxSpeed="25.000000" guiShape="passenger" />
   <vehicle id="rightS_83" type="vehicleS_83" route="edgeS_edgeE" depart="117" departLane="0" />

   <vType id="vehicleW_84" length="5.000000" accel="0.800000" decel="4.500000" sigma="0.5" minGap="2.500000" maxSpeed="25.000000" guiShape="passenger" />
   <vehicle id="uturnW_84" type="vehicleW_84" route="edgeW_edgeW" depart="117" departLane="3" />

   <vType id="vehicleW_85" length="5.000000" accel="0.800000" decel="4.500000" sigma="0.5" minGap="2.500000" maxSpeed="25.000000" guiShape="passenger" />
   <vehicle id="leftW_85" type="vehicleW_85" route="edgeW_edgeN" depart="118" departLane="2" />

   <vType id="vehicleE_86" length="5.000000" accel="0.800000" decel="4.500000" sigma="0.5" minGap="2.500000" maxSpeed="25.000000" guiShape="passenger" />
   <vehicle id="uturnE_86" type="vehicleE_86" route="edgeE_edgeE" depart="120" departLane="3" />

   <vType id="vehicleS_87" length="5.000000" accel="0.800000" decel="4.500000" sigma="0.5" minGap="2.500000" maxSpeed="25.000000" guiShape="passenger" />
   <vehicle id="straightS_87" type="vehicleS_87" route="edgeS_edgeN" depart="122" departLane="0" />

   <vType id="vehicleN_88" length="5.000000" accel="0.800000" decel="4.500000" sigma="0.5" minGap="2.500000" maxSpeed="25.000000" guiShape="passenger" />
   <vehicle id="rightN_88" type="vehicleN_88" route="edgeN_edgeW" depart="124" departLane="0" />

   <vType id="vehicleN_89" length="5.000000" accel="0.800000" decel="4.500000" sigma="0.5" minGap="2.500000" maxSpeed="25.000000" guiShape="passenger" />
   <vehicle id="straightN_89" type="vehicleN_89" route="edgeN_edgeS" depart="128" departLane="2" />

   <vType id="vehicleS_90" length="5.000000" accel="0.800000" decel="4.500000" sigma="0.5" minGap="2.500000" maxSpeed="25.000000" guiShape="passenger" />
   <vehicle id="uturnS_90" type="vehicleS_90" route="edgeS_edgeS" depart="129" departLane="3" />

   <vType id="vehicleS_91" length="5.000000" accel="0.800000" decel="4.500000" sigma="0.5" minGap="2.500000" maxSpeed="25.000000" guiShape="passenger" />
   <vehicle id="uturnS_91" type="vehicleS_91" route="edgeS_edgeS" depart="130" departLane="3" />

   <vType id="vehicleS_92" length="5.000000" accel="0.800000" decel="4.500000" sigma="0.5" minGap="2.500000" maxSpeed="25.000000" guiShape="passenger" />
   <vehicle id="straightS_92" type="vehicleS_92" route="edgeS_edgeN" depart="131" departLane="2" />

   <vType id="vehicleW_93" length="5.000000" accel="0.800000" decel="4.500000" sigma="0.5" minGap="2.500000" maxSpeed="25.000000" guiShape="passenger" />
   <vehicle id="leftW_93" type="vehicleW_93" route="edgeW_edgeN" depart="132" departLane="2" />

   <vType id="vehicleN_94" length="5.000000" accel="0.800000" decel="4.500000" sigma="0.5" minGap="2.500000" maxSpeed="25.000000" guiShape="passenger" />
   <vehicle id="leftN_94" type="vehicleN_94" route="edgeN_edgeE" depart="134" departLane="2" />

   <vType id="vehicleW_95" length="5.000000" accel="0.800000" decel="4.500000" sigma="0.5" minGap="2.500000" maxSpeed="25.000000" guiShape="passenger" />
   <vehicle id="straightW_95" type="vehicleW_95" route="edgeW_edgeE" depart="134" departLane="1" />

   <vType id="vehicleN_96" length="5.000000" accel="0.800000" decel="4.500000" sigma="0.5" minGap="2.500000" maxSpeed="25.000000" guiShape="passenger" />
   <vehicle id="straightN_96" type="vehicleN_96" route="edgeN_edgeS" depart="139" departLane="0" />

   <vType id="vehicleN_97" length="5.000000" accel="0.800000" decel="4.500000" sigma="0.5" minGap="2.500000" maxSpeed="25.000000" guiShape="passenger" />
   <vehicle id="uturnN_97" type="vehicleN_97" route="edgeN_edgeN" depart="140" departLane="3" />

   <vType id="vehicleS_98" length="5.000000" accel="0.800000" decel="4.500000" sigma="0.5" minGap="2.500000" maxSpeed="25.000000" guiShape="passenger" />
   <vehicle id="uturnS_98" type="vehicleS_98" route="edgeS_edgeS" depart="140" departLane="3" />

   <vType id="vehicleE_99" length="5.000000" accel="0.800000" decel="4.500000" sigma="0.5" minGap="2.500000" maxSpeed="25.000000" guiShape="passenger" />
   <vehicle id="uturnE_99" type="vehicleE_99" route="edgeE_edgeE" depart="140" departLane="3" />

   <vType id="vehicleN_100" length="5.000000" accel="0.800000" decel="4.500000" sigma="0.5" minGap="2.500000" maxSpeed="25.000000" guiShape="passenger" />
   <vehicle id="straightN_100" type="vehicleN_100" route="edgeN_edgeS" depart="141" departLane="0" />

   <vType id="vehicleN_101" length="5.000000" accel="0.800000" decel="4.500000" sigma="0.5" minGap="2.500000" maxSpeed="25.000000" guiShape="passenger" />
   <vehicle id="straightN_101" type="vehicleN_101" route="edgeN_edgeS" depart="142" departLane="0" />

   <vType id="vehicleN_102" length="5.000000" accel="0.800000" decel="4.500000" sigma="0.5" minGap="2.500000" maxSpeed="25.000000" guiShape="passenger" />
   <vehicle id="rightN_102" type="vehicleN_102" route="edgeN_edgeW" depart="143" departLane="0" />

   <vType id="vehicleE_103" length="5.000000" accel="0.800000" decel="4.500000" sigma="0.5" minGap="2.500000" maxSpeed="25.000000" guiShape="passenger" />
   <vehicle id="straightE_103" type="vehicleE_103" route="edgeE_edgeW" depart="143" departLane="1" />

   <vType id="vehicleN_104" length="5.000000" accel="0.800000" decel="4.500000" sigma="0.5" minGap="2.500000" maxSpeed="25.000000" guiShape="passenger" />
   <vehicle id="leftN_104" type="vehicleN_104" route="edgeN_edgeE" depart="144" departLane="3" />

   <vType id="vehicleE_105" length="5.000000" accel="0.800000" decel="4.500000" sigma="0.5" minGap="2.500000" maxSpeed="25.000000" guiShape="passenger" />
   <vehicle id="rightE_105" type="vehicleE_105" route="edgeE_edgeN" depart="145" departLane="0" />

   <vType id="vehicleS_106" length="5.000000" accel="0.800000" decel="4.500000" sigma="0.5" minGap="2.500000" maxSpeed="25.000000" guiShape="passenger" />
   <vehicle id="straightS_106" type="vehicleS_106" route="edgeS_edgeN" depart="147" departLane="1" />

   <vType id="vehicleW_107" length="5.000000" accel="0.800000" decel="4.500000" sigma="0.5" minGap="2.500000" maxSpeed="25.000000" guiShape="passenger" />
   <vehicle id="uturnW_107" type="vehicleW_107" route="edgeW_edgeW" depart="147" departLane="3" />

   <vType id="vehicleN_108" length="5.000000" accel="0.800000" decel="4.500000" sigma="0.5" minGap="2.500000" maxSpeed="25.000000" guiShape="passenger" />
   <vehicle id="straightN_108" type="vehicleN_108" route="edgeN_edgeS" depart="149" departLane="2" />

   <vType id="vehicleS_109" length="5.000000" accel="0.800000" decel="4.500000" sigma="0.5" minGap="2.500000" maxSpeed="25.000000" guiShape="passenger" />
   <vehicle id="straightS_109" type="vehicleS_109" route="edgeS_edgeN" depart="149" departLane="0" />

   <vType id="vehicleN_110" length="5.000000" accel="0.800000" decel="4.500000" sigma="0.5" minGap="2.500000" maxSpeed="25.000000" guiShape="passenger" />
   <vehicle id="uturnN_110" type="vehicleN_110" route="edgeN_edgeN" depart="150" departLane="3" />

   <vType id="vehicleE_111" length="5.000000" accel="0.800000" decel="4.500000" sigma="0.5" minGap="2.500000" maxSpeed="25.000000" guiShape="passenger" />
   <vehicle id="uturnE_111" type="vehicleE_111" route="edgeE_edgeE" depart="151" departLane="3" />

   <vType id="vehicleE_112" length="5.000000" accel="0.800000" decel="4.500000" sigma="0.5" minGap="2.500000" maxSpeed="25.000000" guiShape="passenger" />
   <vehicle id="uturnE_112" type="vehicleE_112" route="edgeE_edgeE" depart="152" departLane="3" />

   <vType id="vehicleS_113" length="5.000000" accel="0.800000" decel="4.500000" sigma="0.5" minGap="2.500000" maxSpeed="25.000000" guiShape="passenger" />
   <vehicle id="rightS_113" type="vehicleS_113" route="edgeS_edgeE" depart="153" departLane="0" />

   <vType id="vehicleE_114" length="5.000000" accel="0.800000" decel="4.500000" sigma="0.5" minGap="2.500000" maxSpeed="25.000000" guiShape="passenger" />
   <vehicle id="uturnE_114" type="vehicleE_114" route="edgeE_edgeE" depart="154" departLane="3" />
