<routes>
   <personFlow id="pRegN" begin="0" end="3000" personsPerHour="853.330080">
        <walk edges="edgeN_O edgeS_I" speed="1.010204"/>
    </personFlow>
   <personFlow id="pRegS" begin="0" end="3000" personsPerHour="260.280660">
        <walk edges="edgeS_O edgeN_I" speed="2.029767"/>
    </personFlow>
   <personFlow id="pRegW" begin="0" end="3000" personsPerHour="83.561004">
        <walk edges="edgeW_O edgeE_I" speed="1.049666"/>
    </personFlow>
   <personFlow id="pRegE" begin="0" end="3000" personsPerHour="830.158588">
        <walk edges="edgeE_O edgeW_I" speed="0.949745"/>
    </personFlow>
   <personFlow id="pOppN" begin="0" end="3000" personsPerHour="1031.486650" departPos="300.000000">
        <walk edges="edgeN_I edgeS_O" speed="1.854615"/>
    </personFlow>
   <personFlow id="pOppS" begin="0" end="3000" personsPerHour="969.504590" departPos="700.000000">
        <walk edges="edgeS_I edgeN_O" speed="1.240270"/>
    </personFlow>
   <personFlow id="pOppW" begin="0" end="3000" personsPerHour="936.493789" departPos="600.000000">
        <walk edges="edgeW_I edgeE_O" speed="1.397052"/>
    </personFlow>
   <personFlow id="pOppE" begin="0" end="3000" personsPerHour="172.680293" departPos="800.000000">
        <walk edges="edgeE_I edgeW_O" speed="1.478343"/>
    </personFlow>

    <route id="edgeN_edgeN" edges="edgeN_O edgeN_I" />
    <route id="edgeN_edgeS" edges="edgeN_O edgeS_I" />
    <route id="edgeN_edgeW" edges="edgeN_O edgeW_I" />
    <route id="edgeN_edgeE" edges="edgeN_O edgeE_I" />
    <route id="edgeS_edgeN" edges="edgeS_O edgeN_I" />
    <route id="edgeS_edgeS" edges="edgeS_O edgeS_I" />
    <route id="edgeS_edgeW" edges="edgeS_O edgeW_I" />
    <route id="edgeS_edgeE" edges="edgeS_O edgeE_I" />
    <route id="edgeW_edgeN" edges="edgeW_O edgeN_I" />
    <route id="edgeW_edgeS" edges="edgeW_O edgeS_I" />
    <route id="edgeW_edgeW" edges="edgeW_O edgeW_I" />
    <route id="edgeW_edgeE" edges="edgeW_O edgeE_I" />
    <route id="edgeE_edgeN" edges="edgeE_O edgeN_I" />
    <route id="edgeE_edgeS" edges="edgeE_O edgeS_I" />
    <route id="edgeE_edgeW" edges="edgeE_O edgeW_I" />
    <route id="edgeE_edgeE" edges="edgeE_O edgeE_I" />
    
   <vType id="vehicleS_0" length="4.186000" accel="3.229000" decel="4.791000" sigma="0.5" minGap="2.526248" maxSpeed="126.918234" guiShape="passenger" />
   <vehicle id="straightS_0" type="vehicleS_0" route="edgeS_edgeN" depart="0" departLane="2" />

   <vType id="vehicleE_1" length="4.202000" accel="3.057000" decel="4.426000" sigma="0.5" minGap="2.526248" maxSpeed="126.918234" guiShape="passenger" />
   <vehicle id="straightE_1" type="vehicleE_1" route="edgeE_edgeW" depart="0" departLane="5" />

   <vType id="vehicleN_2" length="5.195000" accel="2.298000" decel="5.198000" sigma="0.5" minGap="2.526248" maxSpeed="126.918234" guiShape="passenger" />
   <vehicle id="straightN_2" type="vehicleN_2" route="edgeN_edgeS" depart="1" departLane="3" />

   <vType id="vehicleW_3" length="4.381000" accel="2.408000" decel="2.959000" sigma="0.5" minGap="2.526248" maxSpeed="126.918234" guiShape="passenger" />
   <vehicle id="rightW_3" type="vehicleW_3" route="edgeW_edgeS" depart="1" departLane="2" />

   <vType id="vehicleE_4" length="4.300000" accel="2.391000" decel="3.389000" sigma="0.5" minGap="2.526248" maxSpeed="126.918234" guiShape="passenger" />
   <vehicle id="straightE_4" type="vehicleE_4" route="edgeE_edgeW" depart="4" departLane="2" />

   <vType id="vehicleE_5" length="4.955000" accel="3.184000" decel="4.812000" sigma="0.5" minGap="2.526248" maxSpeed="126.918234" guiShape="passenger" />
   <vehicle id="straightE_5" type="vehicleE_5" route="edgeE_edgeW" depart="5" departLane="2" />

   <vType id="vehicleS_6" length="4.083000" accel="2.773000" decel="5.778000" sigma="0.5" minGap="2.526248" maxSpeed="126.918234" guiShape="passenger" />
   <vehicle id="rightS_6" type="vehicleS_6" route="edgeS_edgeE" depart="6" departLane="3" />

   <vType id="vehicleE_7" length="5.124000" accel="2.361000" decel="5.249000" sigma="0.5" minGap="2.526248" maxSpeed="126.918234" guiShape="passenger" />
   <vehicle id="straightE_7" type="vehicleE_7" route="edgeE_edgeW" depart="6" departLane="4" />

   <vType id="vehicleS_8" length="4.778000" accel="3.205000" decel="3.325000" sigma="0.5" minGap="2.526248" maxSpeed="126.918234" guiShape="passenger" />
   <vehicle id="rightS_8" type="vehicleS_8" route="edgeS_edgeE" depart="7" departLane="2" />

   <vType id="vehicleS_9" length="4.768000" accel="2.625000" decel="4.500000" sigma="0.5" minGap="2.526248" maxSpeed="126.918234" guiShape="passenger" />
   <vehicle id="straightS_9" type="vehicleS_9" route="edgeS_edgeN" depart="8" departLane="3" />

   <vType id="vehicleN_10" length="5.103000" accel="3.388000" decel="3.136000" sigma="0.5" minGap="2.526248" maxSpeed="126.918234" guiShape="passenger" />
   <vehicle id="straightN_10" type="vehicleN_10" route="edgeN_edgeS" depart="9" departLane="2" />

   <vType id="vehicleE_11" length="5.517000" accel="2.964000" decel="5.720000" sigma="0.5" minGap="2.526248" maxSpeed="126.918234" guiShape="passenger" />
   <vehicle id="straightE_11" type="vehicleE_11" route="edgeE_edgeW" depart="9" departLane="2" />

   <vType id="vehicleS_12" length="5.094000" accel="3.270000" decel="3.728000" sigma="0.5" minGap="2.526248" maxSpeed="126.918234" guiShape="passenger" />
   <vehicle id="rightS_12" type="vehicleS_12" route="edgeS_edgeE" depart="10" departLane="2" />

   <vType id="vehicleE_13" length="5.310000" accel="2.625000" decel="4.234000" sigma="0.5" minGap="2.526248" maxSpeed="126.918234" guiShape="passenger" />
   <vehicle id="rightE_13" type="vehicleE_13" route="edgeE_edgeN" depart="10" departLane="1" />

   <vType id="vehicleS_14" length="5.251000" accel="2.937000" decel="3.282000" sigma="0.5" minGap="2.526248" maxSpeed="126.918234" guiShape="passenger" />
   <vehicle id="straightS_14" type="vehicleS_14" route="edgeS_edgeN" depart="11" departLane="3" />

   <vType id="vehicleW_15" length="3.835000" accel="3.474000" decel="5.429000" sigma="0.5" minGap="2.526248" maxSpeed="126.918234" guiShape="passenger" />
   <vehicle id="straightW_15" type="vehicleW_15" route="edgeW_edgeE" depart="12" departLane="4" />

   <vType id="vehicleE_16" length="4.778000" accel="2.390000" decel="4.965000" sigma="0.5" minGap="2.526248" maxSpeed="126.918234" guiShape="passenger" />
   <vehicle id="straightE_16" type="vehicleE_16" route="edgeE_edgeW" depart="12" departLane="2" />

   <vType id="vehicleW_17" length="5.432000" accel="2.500000" decel="4.320000" sigma="0.5" minGap="2.526248" maxSpeed="126.918234" guiShape="passenger" />
   <vehicle id="straightW_17" type="vehicleW_17" route="edgeW_edgeE" depart="13" departLane="5" />

   <vType id="vehicleS_18" length="3.838000" accel="2.996000" decel="4.512000" sigma="0.5" minGap="2.526248" maxSpeed="126.918234" guiShape="passenger" />
   <vehicle id="straightS_18" type="vehicleS_18" route="edgeS_edgeN" depart="16" departLane="2" />

   <vType id="vehicleW_19" length="4.196000" accel="3.444000" decel="5.368000" sigma="0.5" minGap="2.526248" maxSpeed="126.918234" guiShape="passenger" />
   <vehicle id="straightW_19" type="vehicleW_19" route="edgeW_edgeE" depart="16" departLane="2" />

   <vType id="vehicleE_20" length="4.637000" accel="2.977000" decel="4.938000" sigma="0.5" minGap="2.526248" maxSpeed="126.918234" guiShape="passenger" />
   <vehicle id="straightE_20" type="vehicleE_20" route="edgeE_edgeW" depart="16" departLane="5" />

   <vType id="vehicleN_21" length="4.502000" accel="2.410000" decel="4.735000" sigma="0.5" minGap="2.526248" maxSpeed="126.918234" guiShape="passenger" />
   <vehicle id="straightN_21" type="vehicleN_21" route="edgeN_edgeS" depart="17" departLane="3" />

   <vType id="vehicleW_22" length="4.386000" accel="3.388000" decel="3.439000" sigma="0.5" minGap="2.526248" maxSpeed="126.918234" guiShape="passenger" />
   <vehicle id="straightW_22" type="vehicleW_22" route="edgeW_edgeE" depart="18" departLane="3" />

   <vType id="vehicleN_23" length="4.598000" accel="3.405000" decel="2.892000" sigma="0.5" minGap="2.526248" maxSpeed="126.918234" guiShape="passenger" />
   <vehicle id="straightN_23" type="vehicleN_23" route="edgeN_edgeS" depart="19" departLane="2" />

   <vType id="vehicleS_24" length="5.241000" accel="3.525000" decel="5.579000" sigma="0.5" minGap="2.526248" maxSpeed="126.918234" guiShape="passenger" />
   <vehicle id="uturnS_24" type="vehicleS_24" route="edgeS_edgeS" depart="19" departLane="3" />

   <vType id="vehicleE_25" length="4.170000" accel="2.801000" decel="2.839000" sigma="0.5" minGap="2.526248" maxSpeed="126.918234" guiShape="passenger" />
   <vehicle id="straightE_25" type="vehicleE_25" route="edgeE_edgeW" depart="19" departLane="5" />

   <vType id="vehicleN_26" length="5.397000" accel="3.291000" decel="3.554000" sigma="0.5" minGap="2.526248" maxSpeed="126.918234" guiShape="passenger" />
   <vehicle id="straightN_26" type="vehicleN_26" route="edgeN_edgeS" depart="20" departLane="3" />

   <vType id="vehicleS_27" length="5.469000" accel="3.028000" decel="4.366000" sigma="0.5" minGap="2.526248" maxSpeed="126.918234" guiShape="passenger" />
   <vehicle id="straightS_27" type="vehicleS_27" route="edgeS_edgeN" depart="20" departLane="3" />

   <vType id="vehicleW_28" length="4.667000" accel="3.377000" decel="3.151000" sigma="0.5" minGap="2.526248" maxSpeed="126.918234" guiShape="passenger" />
   <vehicle id="straightW_28" type="vehicleW_28" route="edgeW_edgeE" depart="20" departLane="2" />

   <vType id="vehicleN_29" length="5.285000" accel="2.804000" decel="5.627000" sigma="0.5" minGap="2.526248" maxSpeed="126.918234" guiShape="passenger" />
   <vehicle id="straightN_29" type="vehicleN_29" route="edgeN_edgeS" depart="21" departLane="2" />

   <vType id="vehicleW_30" length="4.933000" accel="3.010000" decel="3.653000" sigma="0.5" minGap="2.526248" maxSpeed="126.918234" guiShape="passenger" />
   <vehicle id="straightW_30" type="vehicleW_30" route="edgeW_edgeE" depart="21" departLane="4" />

   <vType id="vehicleE_31" length="4.213000" accel="2.794000" decel="4.775000" sigma="0.5" minGap="2.526248" maxSpeed="126.918234" guiShape="passenger" />
   <vehicle id="rightE_31" type="vehicleE_31" route="edgeE_edgeN" depart="21" departLane="2" />

   <vType id="vehicleE_32" length="4.771000" accel="2.417000" decel="4.351000" sigma="0.5" minGap="2.526248" maxSpeed="126.918234" guiShape="passenger" />
   <vehicle id="straightE_32" type="vehicleE_32" route="edgeE_edgeW" depart="22" departLane="4" />

   <vType id="vehicleN_33" length="3.920000" accel="2.601000" decel="3.554000" sigma="0.5" minGap="2.526248" maxSpeed="126.918234" guiShape="passenger" />
   <vehicle id="straightN_33" type="vehicleN_33" route="edgeN_edgeS" depart="23" departLane="3" />

   <vType id="vehicleW_34" length="4.317000" accel="3.135000" decel="5.619000" sigma="0.5" minGap="2.526248" maxSpeed="126.918234" guiShape="passenger" />
   <vehicle id="rightW_34" type="vehicleW_34" route="edgeW_edgeS" depart="24" departLane="1" />

   <vType id="vehicleE_35" length="5.080000" accel="2.488000" decel="3.543000" sigma="0.5" minGap="2.526248" maxSpeed="126.918234" guiShape="passenger" />
   <vehicle id="rightE_35" type="vehicleE_35" route="edgeE_edgeN" depart="24" departLane="1" />

   <vType id="vehicleS_36" length="4.256000" accel="2.913000" decel="5.513000" sigma="0.5" minGap="2.526248" maxSpeed="126.918234" guiShape="passenger" />
   <vehicle id="straightS_36" type="vehicleS_36" route="edgeS_edgeN" depart="25" departLane="2" />

   <vType id="vehicleW_37" length="4.278000" accel="2.294000" decel="5.089000" sigma="0.5" minGap="2.526248" maxSpeed="126.918234" guiShape="passenger" />
   <vehicle id="straightW_37" type="vehicleW_37" route="edgeW_edgeE" depart="25" departLane="4" />

   <vType id="vehicleE_38" length="5.017000" accel="3.005000" decel="3.007000" sigma="0.5" minGap="2.526248" maxSpeed="126.918234" guiShape="passenger" />
   <vehicle id="straightE_38" type="vehicleE_38" route="edgeE_edgeW" depart="25" departLane="3" />

   <vType id="vehicleE_39" length="4.332000" accel="3.436000" decel="5.168000" sigma="0.5" minGap="2.526248" maxSpeed="126.918234" guiShape="passenger" />
   <vehicle id="straightE_39" type="vehicleE_39" route="edgeE_edgeW" depart="26" departLane="2" />

   <vType id="vehicleS_40" length="3.979000" accel="3.284000" decel="5.446000" sigma="0.5" minGap="2.526248" maxSpeed="126.918234" guiShape="passenger" />
   <vehicle id="straightS_40" type="vehicleS_40" route="edgeS_edgeN" depart="27" departLane="3" />

   <vType id="vehicleS_41" length="5.179000" accel="2.515000" decel="3.956000" sigma="0.5" minGap="2.526248" maxSpeed="126.918234" guiShape="passenger" />
   <vehicle id="straightS_41" type="vehicleS_41" route="edgeS_edgeN" depart="28" departLane="2" />

   <vType id="vehicleE_42" length="5.183000" accel="3.391000" decel="5.214000" sigma="0.5" minGap="2.526248" maxSpeed="126.918234" guiShape="passenger" />
   <vehicle id="rightE_42" type="vehicleE_42" route="edgeE_edgeN" depart="28" departLane="2" />

   <vType id="vehicleN_43" length="4.460000" accel="2.339000" decel="4.140000" sigma="0.5" minGap="2.526248" maxSpeed="126.918234" guiShape="passenger" />
   <vehicle id="rightN_43" type="vehicleN_43" route="edgeN_edgeW" depart="29" departLane="1" />

   <vType id="vehicleE_44" length="4.193000" accel="2.320000" decel="3.264000" sigma="0.5" minGap="2.526248" maxSpeed="126.918234" guiShape="passenger" />
   <vehicle id="rightE_44" type="vehicleE_44" route="edgeE_edgeN" depart="29" departLane="2" />

   <vType id="vehicleS_45" length="4.406000" accel="2.939000" decel="4.799000" sigma="0.5" minGap="2.526248" maxSpeed="126.918234" guiShape="passenger" />
   <vehicle id="rightS_45" type="vehicleS_45" route="edgeS_edgeE" depart="30" departLane="3" />

   <vType id="vehicleE_46" length="4.251000" accel="3.030000" decel="5.760000" sigma="0.5" minGap="2.526248" maxSpeed="126.918234" guiShape="passenger" />
   <vehicle id="rightE_46" type="vehicleE_46" route="edgeE_edgeN" depart="30" departLane="1" />

   <vType id="vehicleN_47" length="5.056000" accel="2.690000" decel="4.568000" sigma="0.5" minGap="2.526248" maxSpeed="126.918234" guiShape="passenger" />
   <vehicle id="straightN_47" type="vehicleN_47" route="edgeN_edgeS" depart="31" departLane="2" />

   <vType id="vehicleE_48" length="3.805000" accel="3.470000" decel="4.354000" sigma="0.5" minGap="2.526248" maxSpeed="126.918234" guiShape="passenger" />
   <vehicle id="rightE_48" type="vehicleE_48" route="edgeE_edgeN" depart="31" departLane="1" />

   <vType id="vehicleS_49" length="4.370000" accel="2.690000" decel="5.332000" sigma="0.5" minGap="2.526248" maxSpeed="126.918234" guiShape="passenger" />
   <vehicle id="straightS_49" type="vehicleS_49" route="edgeS_edgeN" depart="32" departLane="3" />

   <vType id="vehicleE_50" length="4.454000" accel="3.244000" decel="3.203000" sigma="0.5" minGap="2.526248" maxSpeed="126.918234" guiShape="passenger" />
   <vehicle id="straightE_50" type="vehicleE_50" route="edgeE_edgeW" depart="33" departLane="4" />

   <vType id="vehicleE_51" length="4.846000" accel="2.701000" decel="4.049000" sigma="0.5" minGap="2.526248" maxSpeed="126.918234" guiShape="passenger" />
   <vehicle id="rightE_51" type="vehicleE_51" route="edgeE_edgeN" depart="34" departLane="1" />

   <vType id="vehicleS_52" length="4.868000" accel="2.409000" decel="5.660000" sigma="0.5" minGap="2.526248" maxSpeed="126.918234" guiShape="passenger" />
   <vehicle id="straightS_52" type="vehicleS_52" route="edgeS_edgeN" depart="36" departLane="2" />

   <vType id="vehicleE_53" length="3.844000" accel="2.602000" decel="4.154000" sigma="0.5" minGap="2.526248" maxSpeed="126.918234" guiShape="passenger" />
   <vehicle id="straightE_53" type="vehicleE_53" route="edgeE_edgeW" depart="36" departLane="2" />

   <vType id="vehicleW_54" length="5.339000" accel="3.387000" decel="5.450000" sigma="0.5" minGap="2.526248" maxSpeed="126.918234" guiShape="passenger" />
   <vehicle id="rightW_54" type="vehicleW_54" route="edgeW_edgeS" depart="38" departLane="2" />

   <vType id="vehicleE_55" length="5.000000" accel="2.882000" decel="4.414000" sigma="0.5" minGap="2.526248" maxSpeed="126.918234" guiShape="passenger" />
   <vehicle id="rightE_55" type="vehicleE_55" route="edgeE_edgeN" depart="38" departLane="1" />

   <vType id="vehicleE_56" length="4.899000" accel="3.266000" decel="4.300000" sigma="0.5" minGap="2.526248" maxSpeed="126.918234" guiShape="passenger" />
   <vehicle id="straightE_56" type="vehicleE_56" route="edgeE_edgeW" depart="42" departLane="3" />

   <vType id="vehicleS_57" length="4.269000" accel="2.697000" decel="4.359000" sigma="0.5" minGap="2.526248" maxSpeed="126.918234" guiShape="passenger" />
   <vehicle id="straightS_57" type="vehicleS_57" route="edgeS_edgeN" depart="43" departLane="2" />

   <vType id="vehicleW_58" length="4.065000" accel="2.562000" decel="3.964000" sigma="0.5" minGap="2.526248" maxSpeed="126.918234" guiShape="passenger" />
   <vehicle id="straightW_58" type="vehicleW_58" route="edgeW_edgeE" depart="43" departLane="4" />

   <vType id="vehicleS_59" length="5.359000" accel="3.034000" decel="4.850000" sigma="0.5" minGap="2.526248" maxSpeed="126.918234" guiShape="passenger" />
   <vehicle id="straightS_59" type="vehicleS_59" route="edgeS_edgeN" depart="44" departLane="3" />

   <vType id="vehicleS_60" length="4.471000" accel="3.142000" decel="5.174000" sigma="0.5" minGap="2.526248" maxSpeed="126.918234" guiShape="passenger" />
   <vehicle id="straightS_60" type="vehicleS_60" route="edgeS_edgeN" depart="47" departLane="2" />

   <vType id="vehicleS_61" length="5.294000" accel="2.521000" decel="3.475000" sigma="0.5" minGap="2.526248" maxSpeed="126.918234" guiShape="passenger" />
   <vehicle id="straightS_61" type="vehicleS_61" route="edgeS_edgeN" depart="49" departLane="3" />

   <vType id="vehicleE_62" length="4.454000" accel="3.248000" decel="5.281000" sigma="0.5" minGap="2.526248" maxSpeed="126.918234" guiShape="passenger" />
   <vehicle id="rightE_62" type="vehicleE_62" route="edgeE_edgeN" depart="49" departLane="2" />

   <vType id="vehicleE_63" length="4.188000" accel="2.377000" decel="5.677000" sigma="0.5" minGap="2.526248" maxSpeed="126.918234" guiShape="passenger" />
   <vehicle id="rightE_63" type="vehicleE_63" route="edgeE_edgeN" depart="50" departLane="1" />

   <vType id="vehicleE_64" length="4.019000" accel="3.143000" decel="4.435000" sigma="0.5" minGap="2.526248" maxSpeed="126.918234" guiShape="passenger" />
   <vehicle id="straightE_64" type="vehicleE_64" route="edgeE_edgeW" depart="51" departLane="3" />

   <vType id="vehicleS_65" length="4.845000" accel="3.518000" decel="4.922000" sigma="0.5" minGap="2.526248" maxSpeed="126.918234" guiShape="passenger" />
   <vehicle id="straightS_65" type="vehicleS_65" route="edgeS_edgeN" depart="52" departLane="2" />

   <vType id="vehicleE_66" length="4.339000" accel="3.153000" decel="5.679000" sigma="0.5" minGap="2.526248" maxSpeed="126.918234" guiShape="passenger" />
   <vehicle id="straightE_66" type="vehicleE_66" route="edgeE_edgeW" depart="52" departLane="5" />

   <vType id="vehicleS_67" length="5.232000" accel="2.599000" decel="4.855000" sigma="0.5" minGap="2.526248" maxSpeed="126.918234" guiShape="passenger" />
   <vehicle id="straightS_67" type="vehicleS_67" route="edgeS_edgeN" depart="53" departLane="3" />

   <vType id="vehicleN_68" length="5.149000" accel="2.732000" decel="4.006000" sigma="0.5" minGap="2.526248" maxSpeed="126.918234" guiShape="passenger" />
   <vehicle id="uturnN_68" type="vehicleN_68" route="edgeN_edgeN" depart="54" departLane="3" />

   <vType id="vehicleE_69" length="5.217000" accel="2.424000" decel="5.688000" sigma="0.5" minGap="2.526248" maxSpeed="126.918234" guiShape="passenger" />
   <vehicle id="rightE_69" type="vehicleE_69" route="edgeE_edgeN" depart="54" departLane="2" />

   <vType id="vehicleE_70" length="5.060000" accel="2.632000" decel="5.343000" sigma="0.5" minGap="2.526248" maxSpeed="126.918234" guiShape="passenger" />
   <vehicle id="straightE_70" type="vehicleE_70" route="edgeE_edgeW" depart="56" departLane="2" />

   <vType id="vehicleE_71" length="4.413000" accel="2.619000" decel="3.537000" sigma="0.5" minGap="2.526248" maxSpeed="126.918234" guiShape="passenger" />
   <vehicle id="straightE_71" type="vehicleE_71" route="edgeE_edgeW" depart="58" departLane="4" />

   <vType id="vehicleE_72" length="4.757000" accel="2.596000" decel="4.157000" sigma="0.5" minGap="2.526248" maxSpeed="126.918234" guiShape="passenger" />
   <vehicle id="straightE_72" type="vehicleE_72" route="edgeE_edgeW" depart="59" departLane="5" />

   <vType id="vehicleS_73" length="4.498000" accel="2.600000" decel="4.750000" sigma="0.5" minGap="2.526248" maxSpeed="126.918234" guiShape="passenger" />
   <vehicle id="straightS_73" type="vehicleS_73" route="edgeS_edgeN" depart="60" departLane="3" />

   <vType id="vehicleS_74" length="4.133000" accel="2.442000" decel="4.346000" sigma="0.5" minGap="2.526248" maxSpeed="126.918234" guiShape="passenger" />
   <vehicle id="straightS_74" type="vehicleS_74" route="edgeS_edgeN" depart="62" departLane="2" />

   <vType id="vehicleE_75" length="5.021000" accel="2.451000" decel="2.797000" sigma="0.5" minGap="2.526248" maxSpeed="126.918234" guiShape="passenger" />
   <vehicle id="straightE_75" type="vehicleE_75" route="edgeE_edgeW" depart="64" departLane="2" />

   <vType id="vehicleW_76" length="4.647000" accel="3.402000" decel="4.466000" sigma="0.5" minGap="2.526248" maxSpeed="126.918234" guiShape="passenger" />
   <vehicle id="rightW_76" type="vehicleW_76" route="edgeW_edgeS" depart="65" departLane="2" />

   <vType id="vehicleE_77" length="5.464000" accel="2.612000" decel="5.375000" sigma="0.5" minGap="2.526248" maxSpeed="126.918234" guiShape="passenger" />
   <vehicle id="straightE_77" type="vehicleE_77" route="edgeE_edgeW" depart="65" departLane="2" />

   <vType id="vehicleW_78" length="3.894000" accel="2.480000" decel="4.431000" sigma="0.5" minGap="2.526248" maxSpeed="126.918234" guiShape="passenger" />
   <vehicle id="straightW_78" type="vehicleW_78" route="edgeW_edgeE" depart="66" departLane="4" />

   <vType id="vehicleE_79" length="4.762000" accel="2.820000" decel="4.536000" sigma="0.5" minGap="2.526248" maxSpeed="126.918234" guiShape="passenger" />
   <vehicle id="straightE_79" type="vehicleE_79" route="edgeE_edgeW" depart="66" departLane="3" />

   <vType id="vehicleE_80" length="4.540000" accel="3.015000" decel="2.844000" sigma="0.5" minGap="2.526248" maxSpeed="126.918234" guiShape="passenger" />
   <vehicle id="straightE_80" type="vehicleE_80" route="edgeE_edgeW" depart="67" departLane="2" />

   <vType id="vehicleS_81" length="4.939000" accel="2.490000" decel="3.203000" sigma="0.5" minGap="2.526248" maxSpeed="126.918234" guiShape="passenger" />
   <vehicle id="straightS_81" type="vehicleS_81" route="edgeS_edgeN" depart="68" departLane="2" />

   <vType id="vehicleW_82" length="4.989000" accel="2.889000" decel="2.757000" sigma="0.5" minGap="2.526248" maxSpeed="126.918234" guiShape="passenger" />
   <vehicle id="straightW_82" type="vehicleW_82" route="edgeW_edgeE" depart="68" departLane="4" />

   <vType id="vehicleS_83" length="4.331000" accel="3.245000" decel="4.451000" sigma="0.5" minGap="2.526248" maxSpeed="126.918234" guiShape="passenger" />
   <vehicle id="straightS_83" type="vehicleS_83" route="edgeS_edgeN" depart="72" departLane="3" />

   <vType id="vehicleE_84" length="4.495000" accel="2.637000" decel="4.359000" sigma="0.5" minGap="2.526248" maxSpeed="126.918234" guiShape="passenger" />
   <vehicle id="straightE_84" type="vehicleE_84" route="edgeE_edgeW" depart="72" departLane="5" />

   <vType id="vehicleN_85" length="4.545000" accel="2.701000" decel="3.444000" sigma="0.5" minGap="2.526248" maxSpeed="126.918234" guiShape="passenger" />
   <vehicle id="leftN_85" type="vehicleN_85" route="edgeN_edgeE" depart="73" departLane="3" />

   <vType id="vehicleS_86" length="5.283000" accel="3.038000" decel="2.719000" sigma="0.5" minGap="2.526248" maxSpeed="126.918234" guiShape="passenger" />
   <vehicle id="straightS_86" type="vehicleS_86" route="edgeS_edgeN" depart="73" departLane="3" />

   <vType id="vehicleN_87" length="4.563000" accel="2.644000" decel="5.802000" sigma="0.5" minGap="2.526248" maxSpeed="126.918234" guiShape="passenger" />
   <vehicle id="straightN_87" type="vehicleN_87" route="edgeN_edgeS" depart="74" departLane="3" />

   <vType id="vehicleE_88" length="4.375000" accel="3.144000" decel="5.362000" sigma="0.5" minGap="2.526248" maxSpeed="126.918234" guiShape="passenger" />
   <vehicle id="straightE_88" type="vehicleE_88" route="edgeE_edgeW" depart="74" departLane="4" />

   <vType id="vehicleE_89" length="3.865000" accel="2.402000" decel="3.451000" sigma="0.5" minGap="2.526248" maxSpeed="126.918234" guiShape="passenger" />
   <vehicle id="rightE_89" type="vehicleE_89" route="edgeE_edgeN" depart="75" departLane="1" />

   <vType id="vehicleE_90" length="5.104000" accel="3.087000" decel="5.054000" sigma="0.5" minGap="2.526248" maxSpeed="126.918234" guiShape="passenger" />
   <vehicle id="straightE_90" type="vehicleE_90" route="edgeE_edgeW" depart="77" departLane="3" />

   <vType id="vehicleS_91" length="5.318000" accel="2.908000" decel="2.745000" sigma="0.5" minGap="2.526248" maxSpeed="126.918234" guiShape="passenger" />
   <vehicle id="straightS_91" type="vehicleS_91" route="edgeS_edgeN" depart="78" departLane="2" />

   <vType id="vehicleE_92" length="4.504000" accel="2.576000" decel="5.311000" sigma="0.5" minGap="2.526248" maxSpeed="126.918234" guiShape="passenger" />
   <vehicle id="straightE_92" type="vehicleE_92" route="edgeE_edgeW" depart="78" departLane="2" />

   <vType id="vehicleS_93" length="4.660000" accel="3.203000" decel="4.261000" sigma="0.5" minGap="2.526248" maxSpeed="126.918234" guiShape="passenger" />
   <vehicle id="rightS_93" type="vehicleS_93" route="edgeS_edgeE" depart="79" departLane="2" />

   <vType id="vehicleE_94" length="4.588000" accel="2.474000" decel="3.256000" sigma="0.5" minGap="2.526248" maxSpeed="126.918234" guiShape="passenger" />
   <vehicle id="straightE_94" type="vehicleE_94" route="edgeE_edgeW" depart="79" departLane="3" />

   <vType id="vehicleS_95" length="4.516000" accel="3.481000" decel="4.257000" sigma="0.5" minGap="2.526248" maxSpeed="126.918234" guiShape="passenger" />
   <vehicle id="rightS_95" type="vehicleS_95" route="edgeS_edgeE" depart="80" departLane="1" />

   <vType id="vehicleE_96" length="5.521000" accel="2.914000" decel="3.123000" sigma="0.5" minGap="2.526248" maxSpeed="126.918234" guiShape="passenger" />
   <vehicle id="straightE_96" type="vehicleE_96" route="edgeE_edgeW" depart="80" departLane="5" />

   <vType id="vehicleE_97" length="4.126000" accel="3.179000" decel="4.459000" sigma="0.5" minGap="2.526248" maxSpeed="126.918234" guiShape="passenger" />
   <vehicle id="straightE_97" type="vehicleE_97" route="edgeE_edgeW" depart="81" departLane="3" />

   <vType id="vehicleE_98" length="4.458000" accel="3.550000" decel="5.156000" sigma="0.5" minGap="2.526248" maxSpeed="126.918234" guiShape="passenger" />
   <vehicle id="rightE_98" type="vehicleE_98" route="edgeE_edgeN" depart="82" departLane="1" />

   <vType id="vehicleS_99" length="4.818000" accel="3.399000" decel="5.414000" sigma="0.5" minGap="2.526248" maxSpeed="126.918234" guiShape="passenger" />
   <vehicle id="straightS_99" type="vehicleS_99" route="edgeS_edgeN" depart="83" departLane="3" />

   <vType id="vehicleW_100" length="3.828000" accel="2.473000" decel="5.404000" sigma="0.5" minGap="2.526248" maxSpeed="126.918234" guiShape="passenger" />
   <vehicle id="rightW_100" type="vehicleW_100" route="edgeW_edgeS" depart="83" departLane="1" />

   <vType id="vehicleE_101" length="4.258000" accel="3.084000" decel="3.909000" sigma="0.5" minGap="2.526248" maxSpeed="126.918234" guiShape="passenger" />
   <vehicle id="rightE_101" type="vehicleE_101" route="edgeE_edgeN" depart="83" departLane="1" />

   <vType id="vehicleE_102" length="5.039000" accel="3.258000" decel="5.408000" sigma="0.5" minGap="2.526248" maxSpeed="126.918234" guiShape="passenger" />
   <vehicle id="straightE_102" type="vehicleE_102" route="edgeE_edgeW" depart="84" departLane="2" />

   <vType id="vehicleS_103" length="4.296000" accel="2.580000" decel="2.939000" sigma="0.5" minGap="2.526248" maxSpeed="126.918234" guiShape="passenger" />
   <vehicle id="rightS_103" type="vehicleS_103" route="edgeS_edgeE" depart="85" departLane="1" />

   <vType id="vehicleN_104" length="4.317000" accel="2.327000" decel="3.678000" sigma="0.5" minGap="2.526248" maxSpeed="126.918234" guiShape="passenger" />
   <vehicle id="straightN_104" type="vehicleN_104" route="edgeN_edgeS" depart="86" departLane="2" />

   <vType id="vehicleS_105" length="4.052000" accel="2.967000" decel="4.441000" sigma="0.5" minGap="2.526248" maxSpeed="126.918234" guiShape="passenger" />
   <vehicle id="straightS_105" type="vehicleS_105" route="edgeS_edgeN" depart="86" departLane="2" />

   <vType id="vehicleE_106" length="4.869000" accel="2.597000" decel="5.536000" sigma="0.5" minGap="2.526248" maxSpeed="126.918234" guiShape="passenger" />
   <vehicle id="rightE_106" type="vehicleE_106" route="edgeE_edgeN" depart="86" departLane="1" />

   <vType id="vehicleN_107" length="4.593000" accel="3.140000" decel="5.492000" sigma="0.5" minGap="2.526248" maxSpeed="126.918234" guiShape="passenger" />
   <vehicle id="straightN_107" type="vehicleN_107" route="edgeN_edgeS" depart="87" departLane="3" />

   <vType id="vehicleE_108" length="4.397000" accel="3.039000" decel="4.671000" sigma="0.5" minGap="2.526248" maxSpeed="126.918234" guiShape="passenger" />
   <vehicle id="straightE_108" type="vehicleE_108" route="edgeE_edgeW" depart="87" departLane="5" />
