<edges xmlns:xsi="http://www.w3.org/2001/XMLSchema-instance" xsi:noNamespaceSchemaLocation="http://sumo.dlr.de/xsd/edges_file.xsd">
   <edge id="edgeN_O" from="juncN" to="juncMain" priority="78" numLanes="5" speed="19.0" />
   <edge id="edgeN_I" from="juncMain" to="juncN" priority="46" numLanes="5" speed="11.0" />

   <edge id="edgeS_O" from="juncS" to="juncMain" priority="78" numLanes="5" speed="19.0" />
   <edge id="edgeS_I" from="juncMain" to="juncS" priority="46" numLanes="5" speed="11.0" />

   <edge id="edgeW_O" from="juncW" to="juncMain" priority="78" numLanes="3" speed="19.0" />
   <edge id="edgeW_I" from="juncMain" to="juncW" priority="46" numLanes="3" speed="11.0" />

   <edge id="edgeE_O" from="juncE" to="juncMain" priority="78" numLanes="3" speed="19.0" />
   <edge id="edgeE_I" from="juncMain" to="juncE" priority="46" numLanes="3" speed="11.0" />
</edges>