<routes>
<vType id="typeWE" accel="0.8" decel="4.5" sigma="0.5" length="5" minGap="2.5" maxSpeed="16.67" guiShape="passenger">
</vType>
<vType id="typeNS" accel="0.8" decel="4.5" sigma="0.5" length="5" minGap="2.5" maxSpeed="25" guiShape="passenger">
</vType>

<route id="right" edges="51o 1i 2o 52i" />
<route id="left" edges="52o 2i 1o 51i" />
<route id="down" edges="54o 4i 3o 53i" />
<route id="up" edges="53o 3i 4o 54i" />
    <vehicle id="left_0" type="typeWE" route="left" depart="0" />
    <vehicle id="left_1" type="typeWE" route="left" depart="2" />
    <vehicle id="right_2" type="typeWE" route="right" depart="3" />
    <vehicle id="up_3" type="typeNS" route="up" depart="4" color="1,0,0"/>
    <vehicle id="left_4" type="typeWE" route="left" depart="10" />
    <vehicle id="up_5" type="typeNS" route="up" depart="16" color="1,0,0"/>
    <vehicle id="left_6" type="typeWE" route="left" depart="22" />
    <vehicle id="right_7" type="typeWE" route="right" depart="25" />
    <vehicle id="right_8" type="typeWE" route="right" depart="31" />
    <vehicle id="down_9" type="typeNS" route="down" depart="31" color="1,0,0"/>
    <vehicle id="left_10" type="typeWE" route="left" depart="67" />
    <vehicle id="down_11" type="typeNS" route="down" depart="72" color="1,0,0"/>
    <vehicle id="left_12" type="typeWE" route="left" depart="74" />
    <vehicle id="right_13" type="typeWE" route="right" depart="81" />
    <vehicle id="down_14" type="typeNS" route="down" depart="85" color="1,0,0"/>
    <vehicle id="right_15" type="typeWE" route="right" depart="92" />
    <vehicle id="down_16" type="typeNS" route="down" depart="98" color="1,0,0"/>
    <vehicle id="up_17" type="typeNS" route="up" depart="103" color="1,0,0"/>
    <vehicle id="up_18" type="typeNS" route="up" depart="106" color="1,0,0"/>
    <vehicle id="left_19" type="typeWE" route="left" depart="120" />
    <vehicle id="left_20" type="typeWE" route="left" depart="123" />
    <vehicle id="left_21" type="typeWE" route="left" depart="125" />
    <vehicle id="right_22" type="typeWE" route="right" depart="126" />
    <vehicle id="down_23" type="typeNS" route="down" depart="129" color="1,0,0"/>
    <vehicle id="right_24" type="typeWE" route="right" depart="132" />
    <vehicle id="up_25" type="typeNS" route="up" depart="135" color="1,0,0"/>
    <vehicle id="left_26" type="typeWE" route="left" depart="147" />
    <vehicle id="down_27" type="typeNS" route="down" depart="149" color="1,0,0"/>
    <vehicle id="left_28" type="typeWE" route="left" depart="159" />
    <vehicle id="right_29" type="typeWE" route="right" depart="171" />
    <vehicle id="right_30" type="typeWE" route="right" depart="179" />
    <vehicle id="right_31" type="typeWE" route="right" depart="182" />
    <vehicle id="left_32" type="typeWE" route="left" depart="204" />
    <vehicle id="down_33" type="typeNS" route="down" depart="206" color="1,0,0"/>
    <vehicle id="up_34" type="typeNS" route="up" depart="212" color="1,0,0"/>
    <vehicle id="right_35" type="typeWE" route="right" depart="216" />
    <vehicle id="down_36" type="typeNS" route="down" depart="220" color="1,0,0"/>
    <vehicle id="right_37" type="typeWE" route="right" depart="227" />
    <vehicle id="right_38" type="typeWE" route="right" depart="239" />
    <vehicle id="down_39" type="typeNS" route="down" depart="241" color="1,0,0"/>
    <vehicle id="up_40" type="typeNS" route="up" depart="248" color="1,0,0"/>
    <vehicle id="left_41" type="typeWE" route="left" depart="253" />
    <vehicle id="down_42" type="typeNS" route="down" depart="256" color="1,0,0"/>
    <vehicle id="left_43" type="typeWE" route="left" depart="258" />
    <vehicle id="down_44" type="typeNS" route="down" depart="258" color="1,0,0"/>
    <vehicle id="left_45" type="typeWE" route="left" depart="262" />
    <vehicle id="left_46" type="typeWE" route="left" depart="281" />
    <vehicle id="left_47" type="typeWE" route="left" depart="283" />
    <vehicle id="up_48" type="typeNS" route="up" depart="284" color="1,0,0"/>
    <vehicle id="left_49" type="typeWE" route="left" depart="291" />
    <vehicle id="right_50" type="typeWE" route="right" depart="292" />
    <vehicle id="down_51" type="typeNS" route="down" depart="293" color="1,0,0"/>
    <vehicle id="right_52" type="typeWE" route="right" depart="296" />
    <vehicle id="left_53" type="typeWE" route="left" depart="296" />
    <vehicle id="left_54" type="typeWE" route="left" depart="298" />
    <vehicle id="down_55" type="typeNS" route="down" depart="330" color="1,0,0"/>
    <vehicle id="left_56" type="typeWE" route="left" depart="343" />
    <vehicle id="up_57" type="typeNS" route="up" depart="344" color="1,0,0"/>
    <vehicle id="up_58" type="typeNS" route="up" depart="347" color="1,0,0"/>
    <vehicle id="left_59" type="typeWE" route="left" depart="350" />
    <vehicle id="right_60" type="typeWE" route="right" depart="352" />
    <vehicle id="left_61" type="typeWE" route="left" depart="357" />
    <vehicle id="left_62" type="typeWE" route="left" depart="359" />
    <vehicle id="down_63" type="typeNS" route="down" depart="362" color="1,0,0"/>
    <vehicle id="right_64" type="typeWE" route="right" depart="363" />
    <vehicle id="left_65" type="typeWE" route="left" depart="372" />
    <vehicle id="left_66" type="typeWE" route="left" depart="376" />
    <vehicle id="right_67" type="typeWE" route="right" depart="389" />
    <vehicle id="right_68" type="typeWE" route="right" depart="402" />
    <vehicle id="left_69" type="typeWE" route="left" depart="402" />
    <vehicle id="left_70" type="typeWE" route="left" depart="414" />
    <vehicle id="up_71" type="typeNS" route="up" depart="423" color="1,0,0"/>
    <vehicle id="left_72" type="typeWE" route="left" depart="430" />
    <vehicle id="up_73" type="typeNS" route="up" depart="433" color="1,0,0"/>
    <vehicle id="down_74" type="typeNS" route="down" depart="434" color="1,0,0"/>
    <vehicle id="up_75" type="typeNS" route="up" depart="451" color="1,0,0"/>
    <vehicle id="right_76" type="typeWE" route="right" depart="459" />
    <vehicle id="down_77" type="typeNS" route="down" depart="468" color="1,0,0"/>
    <vehicle id="right_78" type="typeWE" route="right" depart="483" />
    <vehicle id="up_79" type="typeNS" route="up" depart="484" color="1,0,0"/>
    <vehicle id="left_80" type="typeWE" route="left" depart="490" />
    <vehicle id="down_81" type="typeNS" route="down" depart="490" color="1,0,0"/>
    <vehicle id="down_82" type="typeNS" route="down" depart="494" color="1,0,0"/>
    <vehicle id="left_83" type="typeWE" route="left" depart="495" />
    <vehicle id="right_84" type="typeWE" route="right" depart="496" />
    <vehicle id="down_85" type="typeNS" route="down" depart="512" color="1,0,0"/>
    <vehicle id="up_86" type="typeNS" route="up" depart="525" color="1,0,0"/>
    <vehicle id="right_87" type="typeWE" route="right" depart="528" />
    <vehicle id="right_88" type="typeWE" route="right" depart="530" />
    <vehicle id="down_89" type="typeNS" route="down" depart="530" color="1,0,0"/>
    <vehicle id="down_90" type="typeNS" route="down" depart="531" color="1,0,0"/>
    <vehicle id="left_91" type="typeWE" route="left" depart="538" />
    <vehicle id="down_92" type="typeNS" route="down" depart="540" color="1,0,0"/>
    <vehicle id="up_93" type="typeNS" route="up" depart="541" color="1,0,0"/>
    <vehicle id="right_94" type="typeWE" route="right" depart="543" />
    <vehicle id="left_95" type="typeWE" route="left" depart="550" />
    <vehicle id="left_96" type="typeWE" route="left" depart="555" />
    <vehicle id="down_97" type="typeNS" route="down" depart="557" color="1,0,0"/>
    <vehicle id="up_98" type="typeNS" route="up" depart="580" color="1,0,0"/>
    <vehicle id="down_99" type="typeNS" route="down" depart="582" color="1,0,0"/>
    <vehicle id="down_100" type="typeNS" route="down" depart="585" color="1,0,0"/>
    <vehicle id="up_101" type="typeNS" route="up" depart="593" color="1,0,0"/>
    <vehicle id="down_102" type="typeNS" route="down" depart="606" color="1,0,0"/>
    <vehicle id="left_103" type="typeWE" route="left" depart="609" />
    <vehicle id="left_104" type="typeWE" route="left" depart="613" />
    <vehicle id="right_105" type="typeWE" route="right" depart="629" />
    <vehicle id="right_106" type="typeWE" route="right" depart="634" />
    <vehicle id="up_107" type="typeNS" route="up" depart="635" color="1,0,0"/>
    <vehicle id="up_108" type="typeNS" route="up" depart="640" color="1,0,0"/>
    <vehicle id="right_109" type="typeWE" route="right" depart="642" />
    <vehicle id="up_110" type="typeNS" route="up" depart="646" color="1,0,0"/>
    <vehicle id="left_111" type="typeWE" route="left" depart="659" />
    <vehicle id="right_112" type="typeWE" route="right" depart="660" />
    <vehicle id="up_113" type="typeNS" route="up" depart="671" color="1,0,0"/>
    <vehicle id="left_114" type="typeWE" route="left" depart="676" />
    <vehicle id="up_115" type="typeNS" route="up" depart="683" color="1,0,0"/>
    <vehicle id="right_116" type="typeWE" route="right" depart="687" />
    <vehicle id="up_117" type="typeNS" route="up" depart="688" color="1,0,0"/>
    <vehicle id="up_118" type="typeNS" route="up" depart="701" color="1,0,0"/>
    <vehicle id="left_119" type="typeWE" route="left" depart="704" />
    <vehicle id="left_120" type="typeWE" route="left" depart="706" />
    <vehicle id="right_121" type="typeWE" route="right" depart="709" />
    <vehicle id="right_122" type="typeWE" route="right" depart="711" />
    <vehicle id="down_123" type="typeNS" route="down" depart="712" color="1,0,0"/>
    <vehicle id="left_124" type="typeWE" route="left" depart="714" />
    <vehicle id="left_125" type="typeWE" route="left" depart="727" />
    <vehicle id="right_126" type="typeWE" route="right" depart="731" />
    <vehicle id="right_127" type="typeWE" route="right" depart="733" />
    <vehicle id="up_128" type="typeNS" route="up" depart="741" color="1,0,0"/>
    <vehicle id="down_129" type="typeNS" route="down" depart="747" color="1,0,0"/>
    <vehicle id="up_130" type="typeNS" route="up" depart="754" color="1,0,0"/>
    <vehicle id="left_131" type="typeWE" route="left" depart="758" />
    <vehicle id="up_132" type="typeNS" route="up" depart="760" color="1,0,0"/>
    <vehicle id="left_133" type="typeWE" route="left" depart="782" />
    <vehicle id="down_134" type="typeNS" route="down" depart="783" color="1,0,0"/>
    <vehicle id="left_135" type="typeWE" route="left" depart="785" />
    <vehicle id="down_136" type="typeNS" route="down" depart="792" color="1,0,0"/>
    <vehicle id="up_137" type="typeNS" route="up" depart="795" color="1,0,0"/>
    <vehicle id="right_138" type="typeWE" route="right" depart="801" />
    <vehicle id="up_139" type="typeNS" route="up" depart="801" color="1,0,0"/>
    <vehicle id="up_140" type="typeNS" route="up" depart="802" color="1,0,0"/>
    <vehicle id="right_141" type="typeWE" route="right" depart="814" />
    <vehicle id="left_142" type="typeWE" route="left" depart="828" />
    <vehicle id="down_143" type="typeNS" route="down" depart="831" color="1,0,0"/>
    <vehicle id="left_144" type="typeWE" route="left" depart="832" />
    <vehicle id="left_145" type="typeWE" route="left" depart="841" />
    <vehicle id="left_146" type="typeWE" route="left" depart="842" />
    <vehicle id="left_147" type="typeWE" route="left" depart="843" />
    <vehicle id="left_148" type="typeWE" route="left" depart="850" />
    <vehicle id="down_149" type="typeNS" route="down" depart="851" color="1,0,0"/>
    <vehicle id="up_150" type="typeNS" route="up" depart="855" color="1,0,0"/>
    <vehicle id="down_151" type="typeNS" route="down" depart="857" color="1,0,0"/>
    <vehicle id="left_152" type="typeWE" route="left" depart="865" />
    <vehicle id="left_153" type="typeWE" route="left" depart="867" />
    <vehicle id="left_154" type="typeWE" route="left" depart="879" />
    <vehicle id="right_155" type="typeWE" route="right" depart="886" />
    <vehicle id="left_156" type="typeWE" route="left" depart="892" />
    <vehicle id="right_157" type="typeWE" route="right" depart="906" />
    <vehicle id="right_158" type="typeWE" route="right" depart="909" />
    <vehicle id="up_159" type="typeNS" route="up" depart="913" color="1,0,0"/>
    <vehicle id="right_160" type="typeWE" route="right" depart="928" />
    <vehicle id="up_161" type="typeNS" route="up" depart="932" color="1,0,0"/>
    <vehicle id="up_162" type="typeNS" route="up" depart="934" color="1,0,0"/>
    <vehicle id="down_163" type="typeNS" route="down" depart="941" color="1,0,0"/>
    <vehicle id="left_164" type="typeWE" route="left" depart="950" />
    <vehicle id="right_165" type="typeWE" route="right" depart="961" />
    <vehicle id="up_166" type="typeNS" route="up" depart="966" color="1,0,0"/>
    <vehicle id="left_167" type="typeWE" route="left" depart="967" />
    <vehicle id="down_168" type="typeNS" route="down" depart="976" color="1,0,0"/>
    <vehicle id="right_169" type="typeWE" route="right" depart="978" />
    <vehicle id="left_170" type="typeWE" route="left" depart="988" />
    <vehicle id="down_171" type="typeNS" route="down" depart="988" color="1,0,0"/>
    <vehicle id="down_172" type="typeNS" route="down" depart="989" color="1,0,0"/>
    <vehicle id="down_173" type="typeNS" route="down" depart="991" color="1,0,0"/>
    <vehicle id="left_174" type="typeWE" route="left" depart="999" />
    <vehicle id="down_175" type="typeNS" route="down" depart="1002" color="1,0,0"/>
    <vehicle id="left_176" type="typeWE" route="left" depart="1008" />
    <vehicle id="up_177" type="typeNS" route="up" depart="1017" color="1,0,0"/>
    <vehicle id="up_178" type="typeNS" route="up" depart="1019" color="1,0,0"/>
    <vehicle id="down_179" type="typeNS" route="down" depart="1023" color="1,0,0"/>
    <vehicle id="up_180" type="typeNS" route="up" depart="1024" color="1,0,0"/>
    <vehicle id="left_181" type="typeWE" route="left" depart="1025" />
    <vehicle id="down_182" type="typeNS" route="down" depart="1035" color="1,0,0"/>
    <vehicle id="right_183" type="typeWE" route="right" depart="1038" />
    <vehicle id="up_184" type="typeNS" route="up" depart="1045" color="1,0,0"/>
    <vehicle id="right_185" type="typeWE" route="right" depart="1052" />
    <vehicle id="right_186" type="typeWE" route="right" depart="1065" />
    <vehicle id="up_187" type="typeNS" route="up" depart="1074" color="1,0,0"/>
    <vehicle id="down_188" type="typeNS" route="down" depart="1077" color="1,0,0"/>
    <vehicle id="right_189" type="typeWE" route="right" depart="1081" />
    <vehicle id="down_190" type="typeNS" route="down" depart="1087" color="1,0,0"/>
    <vehicle id="up_191" type="typeNS" route="up" depart="1088" color="1,0,0"/>
    <vehicle id="up_192" type="typeNS" route="up" depart="1089" color="1,0,0"/>
    <vehicle id="up_193" type="typeNS" route="up" depart="1090" color="1,0,0"/>
    <vehicle id="up_194" type="typeNS" route="up" depart="1097" color="1,0,0"/>
    <vehicle id="right_195" type="typeWE" route="right" depart="1098" />
    <vehicle id="left_196" type="typeWE" route="left" depart="1106" />
    <vehicle id="up_197" type="typeNS" route="up" depart="1108" color="1,0,0"/>
    <vehicle id="up_198" type="typeNS" route="up" depart="1112" color="1,0,0"/>
    <vehicle id="right_199" type="typeWE" route="right" depart="1113" />
    <vehicle id="left_200" type="typeWE" route="left" depart="1124" />
    <vehicle id="left_201" type="typeWE" route="left" depart="1125" />
    <vehicle id="up_202" type="typeNS" route="up" depart="1136" color="1,0,0"/>
    <vehicle id="left_203" type="typeWE" route="left" depart="1150" />
    <vehicle id="left_204" type="typeWE" route="left" depart="1152" />
    <vehicle id="down_205" type="typeNS" route="down" depart="1160" color="1,0,0"/>
    <vehicle id="down_206" type="typeNS" route="down" depart="1161" color="1,0,0"/>
    <vehicle id="up_207" type="typeNS" route="up" depart="1165" color="1,0,0"/>
    <vehicle id="up_208" type="typeNS" route="up" depart="1171" color="1,0,0"/>
    <vehicle id="down_209" type="typeNS" route="down" depart="1173" color="1,0,0"/>
    <vehicle id="down_210" type="typeNS" route="down" depart="1176" color="1,0,0"/>
    <vehicle id="down_211" type="typeNS" route="down" depart="1177" color="1,0,0"/>
    <vehicle id="right_212" type="typeWE" route="right" depart="1180" />
    <vehicle id="up_213" type="typeNS" route="up" depart="1180" color="1,0,0"/>
    <vehicle id="down_214" type="typeNS" route="down" depart="1182" color="1,0,0"/>
    <vehicle id="right_215" type="typeWE" route="right" depart="1184" />
    <vehicle id="down_216" type="typeNS" route="down" depart="1187" color="1,0,0"/>
    <vehicle id="up_217" type="typeNS" route="up" depart="1191" color="1,0,0"/>
    <vehicle id="right_218" type="typeWE" route="right" depart="1209" />
    <vehicle id="down_219" type="typeNS" route="down" depart="1209" color="1,0,0"/>
    <vehicle id="left_220" type="typeWE" route="left" depart="1213" />
    <vehicle id="down_221" type="typeNS" route="down" depart="1216" color="1,0,0"/>
    <vehicle id="down_222" type="typeNS" route="down" depart="1218" color="1,0,0"/>
    <vehicle id="left_223" type="typeWE" route="left" depart="1234" />
    <vehicle id="down_224" type="typeNS" route="down" depart="1237" color="1,0,0"/>
    <vehicle id="left_225" type="typeWE" route="left" depart="1238" />
    <vehicle id="up_226" type="typeNS" route="up" depart="1239" color="1,0,0"/>
    <vehicle id="left_227" type="typeWE" route="left" depart="1252" />
    <vehicle id="down_228" type="typeNS" route="down" depart="1252" color="1,0,0"/>
    <vehicle id="right_229" type="typeWE" route="right" depart="1255" />
    <vehicle id="up_230" type="typeNS" route="up" depart="1256" color="1,0,0"/>
    <vehicle id="right_231" type="typeWE" route="right" depart="1258" />
    <vehicle id="right_232" type="typeWE" route="right" depart="1265" />
    <vehicle id="up_233" type="typeNS" route="up" depart="1267" color="1,0,0"/>
    <vehicle id="right_234" type="typeWE" route="right" depart="1271" />
    <vehicle id="down_235" type="typeNS" route="down" depart="1275" color="1,0,0"/>
    <vehicle id="right_236" type="typeWE" route="right" depart="1277" />
    <vehicle id="up_237" type="typeNS" route="up" depart="1280" color="1,0,0"/>
    <vehicle id="right_238" type="typeWE" route="right" depart="1294" />
    <vehicle id="right_239" type="typeWE" route="right" depart="1307" />
    <vehicle id="left_240" type="typeWE" route="left" depart="1311" />
    <vehicle id="right_241" type="typeWE" route="right" depart="1319" />
    <vehicle id="up_242" type="typeNS" route="up" depart="1333" color="1,0,0"/>
    <vehicle id="up_243" type="typeNS" route="up" depart="1338" color="1,0,0"/>
    <vehicle id="up_244" type="typeNS" route="up" depart="1348" color="1,0,0"/>
    <vehicle id="left_245" type="typeWE" route="left" depart="1350" />
    <vehicle id="right_246" type="typeWE" route="right" depart="1356" />
    <vehicle id="up_247" type="typeNS" route="up" depart="1357" color="1,0,0"/>
    <vehicle id="right_248" type="typeWE" route="right" depart="1375" />
    <vehicle id="up_249" type="typeNS" route="up" depart="1379" color="1,0,0"/>
    <vehicle id="left_250" type="typeWE" route="left" depart="1385" />
    <vehicle id="right_251" type="typeWE" route="right" depart="1386" />
    <vehicle id="down_252" type="typeNS" route="down" depart="1388" color="1,0,0"/>
    <vehicle id="up_253" type="typeNS" route="up" depart="1389" color="1,0,0"/>
    <vehicle id="up_254" type="typeNS" route="up" depart="1390" color="1,0,0"/>
    <vehicle id="up_255" type="typeNS" route="up" depart="1398" color="1,0,0"/>
    <vehicle id="right_256" type="typeWE" route="right" depart="1400" />
    <vehicle id="down_257" type="typeNS" route="down" depart="1400" color="1,0,0"/>
    <vehicle id="left_258" type="typeWE" route="left" depart="1404" />
    <vehicle id="right_259" type="typeWE" route="right" depart="1406" />
    <vehicle id="up_260" type="typeNS" route="up" depart="1410" color="1,0,0"/>
    <vehicle id="down_261" type="typeNS" route="down" depart="1412" color="1,0,0"/>
    <vehicle id="up_262" type="typeNS" route="up" depart="1428" color="1,0,0"/>
    <vehicle id="left_263" type="typeWE" route="left" depart="1429" />
    <vehicle id="right_264" type="typeWE" route="right" depart="1430" />
    <vehicle id="right_265" type="typeWE" route="right" depart="1432" />
    <vehicle id="right_266" type="typeWE" route="right" depart="1435" />
    <vehicle id="left_267" type="typeWE" route="left" depart="1438" />
    <vehicle id="up_268" type="typeNS" route="up" depart="1461" color="1,0,0"/>
    <vehicle id="right_269" type="typeWE" route="right" depart="1465" />
    <vehicle id="down_270" type="typeNS" route="down" depart="1466" color="1,0,0"/>
    <vehicle id="up_271" type="typeNS" route="up" depart="1469" color="1,0,0"/>
    <vehicle id="left_272" type="typeWE" route="left" depart="1477" />
    <vehicle id="right_273" type="typeWE" route="right" depart="1490" />
    <vehicle id="down_274" type="typeNS" route="down" depart="1491" color="1,0,0"/>
    <vehicle id="up_275" type="typeNS" route="up" depart="1491" color="1,0,0"/>
    <vehicle id="left_276" type="typeWE" route="left" depart="1505" />
    <vehicle id="right_277" type="typeWE" route="right" depart="1513" />
    <vehicle id="down_278" type="typeNS" route="down" depart="1516" color="1,0,0"/>
    <vehicle id="down_279" type="typeNS" route="down" depart="1523" color="1,0,0"/>
    <vehicle id="down_280" type="typeNS" route="down" depart="1530" color="1,0,0"/>
    <vehicle id="up_281" type="typeNS" route="up" depart="1549" color="1,0,0"/>
    <vehicle id="down_282" type="typeNS" route="down" depart="1551" color="1,0,0"/>
    <vehicle id="down_283" type="typeNS" route="down" depart="1557" color="1,0,0"/>
    <vehicle id="up_284" type="typeNS" route="up" depart="1557" color="1,0,0"/>
    <vehicle id="up_285" type="typeNS" route="up" depart="1558" color="1,0,0"/>
    <vehicle id="down_286" type="typeNS" route="down" depart="1562" color="1,0,0"/>
    <vehicle id="up_287" type="typeNS" route="up" depart="1569" color="1,0,0"/>
    <vehicle id="right_288" type="typeWE" route="right" depart="1576" />
    <vehicle id="right_289" type="typeWE" route="right" depart="1586" />
    <vehicle id="down_290" type="typeNS" route="down" depart="1588" color="1,0,0"/>
    <vehicle id="up_291" type="typeNS" route="up" depart="1600" color="1,0,0"/>
    <vehicle id="up_292" type="typeNS" route="up" depart="1608" color="1,0,0"/>
    <vehicle id="left_293" type="typeWE" route="left" depart="1613" />
    <vehicle id="left_294" type="typeWE" route="left" depart="1632" />
    <vehicle id="right_295" type="typeWE" route="right" depart="1637" />
    <vehicle id="down_296" type="typeNS" route="down" depart="1641" color="1,0,0"/>
    <vehicle id="left_297" type="typeWE" route="left" depart="1647" />
    <vehicle id="up_298" type="typeNS" route="up" depart="1648" color="1,0,0"/>
    <vehicle id="right_299" type="typeWE" route="right" depart="1655" />
    <vehicle id="down_300" type="typeNS" route="down" depart="1658" color="1,0,0"/>
    <vehicle id="right_301" type="typeWE" route="right" depart="1661" />
    <vehicle id="down_302" type="typeNS" route="down" depart="1670" color="1,0,0"/>
    <vehicle id="left_303" type="typeWE" route="left" depart="1675" />
    <vehicle id="up_304" type="typeNS" route="up" depart="1675" color="1,0,0"/>
    <vehicle id="up_305" type="typeNS" route="up" depart="1683" color="1,0,0"/>
    <vehicle id="right_306" type="typeWE" route="right" depart="1688" />
    <vehicle id="down_307" type="typeNS" route="down" depart="1688" color="1,0,0"/>
    <vehicle id="up_308" type="typeNS" route="up" depart="1691" color="1,0,0"/>
    <vehicle id="up_309" type="typeNS" route="up" depart="1694" color="1,0,0"/>
    <vehicle id="up_310" type="typeNS" route="up" depart="1701" color="1,0,0"/>
    <vehicle id="right_311" type="typeWE" route="right" depart="1710" />
    <vehicle id="left_312" type="typeWE" route="left" depart="1710" />
    <vehicle id="up_313" type="typeNS" route="up" depart="1711" color="1,0,0"/>
    <vehicle id="right_314" type="typeWE" route="right" depart="1714" />
    <vehicle id="down_315" type="typeNS" route="down" depart="1718" color="1,0,0"/>
    <vehicle id="right_316" type="typeWE" route="right" depart="1728" />
    <vehicle id="down_317" type="typeNS" route="down" depart="1728" color="1,0,0"/>
    <vehicle id="down_318" type="typeNS" route="down" depart="1734" color="1,0,0"/>
    <vehicle id="down_319" type="typeNS" route="down" depart="1738" color="1,0,0"/>
    <vehicle id="down_320" type="typeNS" route="down" depart="1741" color="1,0,0"/>
    <vehicle id="down_321" type="typeNS" route="down" depart="1744" color="1,0,0"/>
    <vehicle id="down_322" type="typeNS" route="down" depart="1760" color="1,0,0"/>
    <vehicle id="up_323" type="typeNS" route="up" depart="1762" color="1,0,0"/>
    <vehicle id="right_324" type="typeWE" route="right" depart="1776" />
    <vehicle id="left_325" type="typeWE" route="left" depart="1778" />
    <vehicle id="up_326" type="typeNS" route="up" depart="1778" color="1,0,0"/>
    <vehicle id="right_327" type="typeWE" route="right" depart="1783" />
    <vehicle id="down_328" type="typeNS" route="down" depart="1793" color="1,0,0"/>
    <vehicle id="up_329" type="typeNS" route="up" depart="1794" color="1,0,0"/>
    <vehicle id="left_330" type="typeWE" route="left" depart="1797" />
    <vehicle id="right_331" type="typeWE" route="right" depart="1803" />
    <vehicle id="up_332" type="typeNS" route="up" depart="1803" color="1,0,0"/>
    <vehicle id="up_333" type="typeNS" route="up" depart="1806" color="1,0,0"/>
    <vehicle id="down_334" type="typeNS" route="down" depart="1809" color="1,0,0"/>
    <vehicle id="up_335" type="typeNS" route="up" depart="1810" color="1,0,0"/>
    <vehicle id="down_336" type="typeNS" route="down" depart="1825" color="1,0,0"/>
    <vehicle id="down_337" type="typeNS" route="down" depart="1826" color="1,0,0"/>
    <vehicle id="right_338" type="typeWE" route="right" depart="1834" />
    <vehicle id="up_339" type="typeNS" route="up" depart="1838" color="1,0,0"/>
    <vehicle id="up_340" type="typeNS" route="up" depart="1847" color="1,0,0"/>
    <vehicle id="right_341" type="typeWE" route="right" depart="1854" />
    <vehicle id="down_342" type="typeNS" route="down" depart="1854" color="1,0,0"/>
    <vehicle id="right_343" type="typeWE" route="right" depart="1858" />
    <vehicle id="down_344" type="typeNS" route="down" depart="1859" color="1,0,0"/>
    <vehicle id="up_345" type="typeNS" route="up" depart="1859" color="1,0,0"/>
    <vehicle id="up_346" type="typeNS" route="up" depart="1861" color="1,0,0"/>
    <vehicle id="down_347" type="typeNS" route="down" depart="1862" color="1,0,0"/>
    <vehicle id="up_348" type="typeNS" route="up" depart="1868" color="1,0,0"/>
    <vehicle id="up_349" type="typeNS" route="up" depart="1876" color="1,0,0"/>
    <vehicle id="up_350" type="typeNS" route="up" depart="1885" color="1,0,0"/>
    <vehicle id="left_351" type="typeWE" route="left" depart="1889" />
    <vehicle id="down_352" type="typeNS" route="down" depart="1897" color="1,0,0"/>
    <vehicle id="right_353" type="typeWE" route="right" depart="1900" />
    <vehicle id="down_354" type="typeNS" route="down" depart="1905" color="1,0,0"/>
    <vehicle id="up_355" type="typeNS" route="up" depart="1913" color="1,0,0"/>
    <vehicle id="right_356" type="typeWE" route="right" depart="1928" />
    <vehicle id="down_357" type="typeNS" route="down" depart="1931" color="1,0,0"/>
    <vehicle id="left_358" type="typeWE" route="left" depart="1934" />
    <vehicle id="left_359" type="typeWE" route="left" depart="1937" />
    <vehicle id="down_360" type="typeNS" route="down" depart="1957" color="1,0,0"/>
    <vehicle id="up_361" type="typeNS" route="up" depart="1960" color="1,0,0"/>
    <vehicle id="left_362" type="typeWE" route="left" depart="1964" />
    <vehicle id="up_363" type="typeNS" route="up" depart="1972" color="1,0,0"/>
    <vehicle id="left_364" type="typeWE" route="left" depart="1977" />
    <vehicle id="left_365" type="typeWE" route="left" depart="1980" />
    <vehicle id="down_366" type="typeNS" route="down" depart="1984" color="1,0,0"/>
    <vehicle id="up_367" type="typeNS" route="up" depart="1987" color="1,0,0"/>
    <vehicle id="down_368" type="typeNS" route="down" depart="1995" color="1,0,0"/>
    <vehicle id="left_369" type="typeWE" route="left" depart="2004" />
    <vehicle id="down_370" type="typeNS" route="down" depart="2005" color="1,0,0"/>
    <vehicle id="right_371" type="typeWE" route="right" depart="2015" />
    <vehicle id="down_372" type="typeNS" route="down" depart="2015" color="1,0,0"/>
    <vehicle id="right_373" type="typeWE" route="right" depart="2035" />
    <vehicle id="up_374" type="typeNS" route="up" depart="2054" color="1,0,0"/>
    <vehicle id="up_375" type="typeNS" route="up" depart="2059" color="1,0,0"/>
    <vehicle id="right_376" type="typeWE" route="right" depart="2065" />
    <vehicle id="left_377" type="typeWE" route="left" depart="2069" />
    <vehicle id="left_378" type="typeWE" route="left" depart="2075" />
    <vehicle id="right_379" type="typeWE" route="right" depart="2077" />
    <vehicle id="left_380" type="typeWE" route="left" depart="2089" />
    <vehicle id="down_381" type="typeNS" route="down" depart="2092" color="1,0,0"/>
    <vehicle id="down_382" type="typeNS" route="down" depart="2099" color="1,0,0"/>
    <vehicle id="up_383" type="typeNS" route="up" depart="2121" color="1,0,0"/>
    <vehicle id="up_384" type="typeNS" route="up" depart="2123" color="1,0,0"/>
    <vehicle id="right_385" type="typeWE" route="right" depart="2131" />
    <vehicle id="down_386" type="typeNS" route="down" depart="2136" color="1,0,0"/>