<routes>
   <personFlow id="pRegN" begin="0" end="200" personsPerHour="465.863606">
        <walk edges="edgeN_O edgeS_I" speed="1.929576"/>
    </personFlow>
   <personFlow id="pRegS" begin="0" end="200" personsPerHour="1024.002977">
        <walk edges="edgeS_O edgeN_I" speed="1.304281"/>
    </personFlow>
   <personFlow id="pRegW" begin="0" end="200" personsPerHour="54.411361">
        <walk edges="edgeW_O edgeE_I" speed="1.687385"/>
    </personFlow>
   <personFlow id="pRegE" begin="0" end="200" personsPerHour="36.389294">
        <walk edges="edgeE_O edgeW_I" speed="1.915593"/>
    </personFlow>
   <personFlow id="pOppN" begin="0" end="200" personsPerHour="975.922675" departPos="500.000000">
        <walk edges="edgeN_I edgeS_O" speed="1.989268"/>
    </personFlow>
   <personFlow id="pOppS" begin="0" end="200" personsPerHour="705.108942" departPos="800.000000">
        <walk edges="edgeS_I edgeN_O" speed="1.661986"/>
    </personFlow>
   <personFlow id="pOppW" begin="0" end="200" personsPerHour="226.157782" departPos="500.000000">
        <walk edges="edgeW_I edgeE_O" speed="1.143678"/>
    </personFlow>
   <personFlow id="pOppE" begin="0" end="200" personsPerHour="845.696383" departPos="900.000000">
        <walk edges="edgeE_I edgeW_O" speed="1.581992"/>
    </personFlow>

    <route id="edgeN_edgeN" edges="edgeN_O edgeN_I" />
    <route id="edgeN_edgeS" edges="edgeN_O edgeS_I" />
    <route id="edgeN_edgeW" edges="edgeN_O edgeW_I" />
    <route id="edgeN_edgeE" edges="edgeN_O edgeE_I" />
    <route id="edgeS_edgeN" edges="edgeS_O edgeN_I" />
    <route id="edgeS_edgeS" edges="edgeS_O edgeS_I" />
    <route id="edgeS_edgeW" edges="edgeS_O edgeW_I" />
    <route id="edgeS_edgeE" edges="edgeS_O edgeE_I" />
    <route id="edgeW_edgeN" edges="edgeW_O edgeN_I" />
    <route id="edgeW_edgeS" edges="edgeW_O edgeS_I" />
    <route id="edgeW_edgeW" edges="edgeW_O edgeW_I" />
    <route id="edgeW_edgeE" edges="edgeW_O edgeE_I" />
    <route id="edgeE_edgeN" edges="edgeE_O edgeN_I" />
    <route id="edgeE_edgeS" edges="edgeE_O edgeS_I" />
    <route id="edgeE_edgeW" edges="edgeE_O edgeW_I" />
    <route id="edgeE_edgeE" edges="edgeE_O edgeE_I" />
    
   <vType id="vehicleS_0" length="4.210000" accel="3.181000" decel="4.800000" sigma="0.5" minGap="2.444044" maxSpeed="129.956421" guiShape="passenger" />
   <vehicle id="straightS_0" type="vehicleS_0" route="edgeS_edgeN" depart="0" departLane="4" />

   <vType id="vehicleW_1" length="3.870000" accel="2.524000" decel="4.424000" sigma="0.5" minGap="2.444044" maxSpeed="129.956421" guiShape="passenger" />
   <vehicle id="straightW_1" type="vehicleW_1" route="edgeW_edgeE" depart="0" departLane="2" />

   <vType id="vehicleN_2" length="5.150000" accel="2.450000" decel="4.243000" sigma="0.5" minGap="2.444044" maxSpeed="129.956421" guiShape="passenger" />
   <vehicle id="rightN_2" type="vehicleN_2" route="edgeN_edgeW" depart="2" departLane="1" />

   <vType id="vehicleS_3" length="4.409000" accel="2.365000" decel="3.529000" sigma="0.5" minGap="2.444044" maxSpeed="129.956421" guiShape="passenger" />
   <vehicle id="rightS_3" type="vehicleS_3" route="edgeS_edgeE" depart="2" departLane="1" />

   <vType id="vehicleW_4" length="4.326000" accel="2.349000" decel="3.827000" sigma="0.5" minGap="2.444044" maxSpeed="129.956421" guiShape="passenger" />
   <vehicle id="straightW_4" type="vehicleW_4" route="edgeW_edgeE" depart="5" departLane="2" />

   <vType id="vehicleW_5" length="4.994000" accel="3.137000" decel="4.815000" sigma="0.5" minGap="2.444044" maxSpeed="129.956421" guiShape="passenger" />
   <vehicle id="straightW_5" type="vehicleW_5" route="edgeW_edgeE" depart="6" departLane="2" />

   <vType id="vehicleN_6" length="4.105000" accel="2.728000" decel="5.485000" sigma="0.5" minGap="2.444044" maxSpeed="129.956421" guiShape="passenger" />
   <vehicle id="straightN_6" type="vehicleN_6" route="edgeN_edgeS" depart="7" departLane="4" />

   <vType id="vehicleS_7" length="5.231000" accel="2.756000" decel="3.462000" sigma="0.5" minGap="2.444044" maxSpeed="129.956421" guiShape="passenger" />
   <vehicle id="rightS_7" type="vehicleS_7" route="edgeS_edgeE" depart="8" departLane="1" />

   <vType id="vehicleW_8" length="5.126000" accel="2.930000" decel="4.954000" sigma="0.5" minGap="2.444044" maxSpeed="129.956421" guiShape="passenger" />
   <vehicle id="leftW_8" type="vehicleW_8" route="edgeW_edgeN" depart="9" departLane="6" />

   <vType id="vehicleN_9" length="5.569000" accel="2.893000" decel="3.517000" sigma="0.5" minGap="2.444044" maxSpeed="129.956421" guiShape="passenger" />
   <vehicle id="leftN_9" type="vehicleN_9" route="edgeN_edgeE" depart="10" departLane="4" />

   <vType id="vehicleW_10" length="5.012000" accel="3.003000" decel="4.160000" sigma="0.5" minGap="2.444044" maxSpeed="129.956421" guiShape="passenger" />
   <vehicle id="leftW_10" type="vehicleW_10" route="edgeW_edgeN" depart="10" departLane="6" />

   <vType id="vehicleW_11" length="5.015000" accel="2.928000" decel="3.902000" sigma="0.5" minGap="2.444044" maxSpeed="129.956421" guiShape="passenger" />
   <vehicle id="straightW_11" type="vehicleW_11" route="edgeW_edgeE" depart="11" departLane="4" />

   <vType id="vehicleE_12" length="4.614000" accel="3.456000" decel="5.236000" sigma="0.5" minGap="2.444044" maxSpeed="129.956421" guiShape="passenger" />
   <vehicle id="straightE_12" type="vehicleE_12" route="edgeE_edgeW" depart="11" departLane="4" />

   <vType id="vehicleE_13" length="5.295000" accel="2.891000" decel="3.753000" sigma="0.5" minGap="2.444044" maxSpeed="129.956421" guiShape="passenger" />
   <vehicle id="straightE_13" type="vehicleE_13" route="edgeE_edgeW" depart="12" departLane="4" />

   <vType id="vehicleN_14" length="3.852000" accel="3.425000" decel="5.242000" sigma="0.5" minGap="2.444044" maxSpeed="129.956421" guiShape="passenger" />
   <vehicle id="straightN_14" type="vehicleN_14" route="edgeN_edgeS" depart="14" departLane="3" />

   <vType id="vehicleN_15" length="5.250000" accel="3.487000" decel="4.484000" sigma="0.5" minGap="2.444044" maxSpeed="129.956421" guiShape="passenger" />
   <vehicle id="straightN_15" type="vehicleN_15" route="edgeN_edgeS" depart="15" departLane="2" />

   <vType id="vehicleS_16" length="4.783000" accel="2.583000" decel="5.228000" sigma="0.5" minGap="2.444044" maxSpeed="129.956421" guiShape="passenger" />
   <vehicle id="straightS_16" type="vehicleS_16" route="edgeS_edgeN" depart="15" departLane="3" />

   <vType id="vehicleN_17" length="3.855000" accel="2.949000" decel="4.606000" sigma="0.5" minGap="2.444044" maxSpeed="129.956421" guiShape="passenger" />
   <vehicle id="leftN_17" type="vehicleN_17" route="edgeN_edgeE" depart="18" departLane="4" />

   <vType id="vehicleS_18" length="4.220000" accel="3.395000" decel="5.200000" sigma="0.5" minGap="2.444044" maxSpeed="129.956421" guiShape="passenger" />
   <vehicle id="straightS_18" type="vehicleS_18" route="edgeS_edgeN" depart="18" departLane="2" />

   <vType id="vehicleN_19" length="4.440000" accel="2.768000" decel="5.210000" sigma="0.5" minGap="2.444044" maxSpeed="129.956421" guiShape="passenger" />
   <vehicle id="straightN_19" type="vehicleN_19" route="edgeN_edgeS" depart="21" departLane="2" />

   <vType id="vehicleE_20" length="4.413000" accel="3.339000" decel="3.862000" sigma="0.5" minGap="2.444044" maxSpeed="129.956421" guiShape="passenger" />
   <vehicle id="straightE_20" type="vehicleE_20" route="edgeE_edgeW" depart="21" departLane="3" />

   <vType id="vehicleS_21" length="4.630000" accel="3.356000" decel="3.483000" sigma="0.5" minGap="2.444044" maxSpeed="129.956421" guiShape="passenger" />
   <vehicle id="leftS_21" type="vehicleS_21" route="edgeS_edgeW" depart="22" departLane="4" />

   <vType id="vehicleW_22" length="5.286000" accel="3.475000" decel="5.347000" sigma="0.5" minGap="2.444044" maxSpeed="129.956421" guiShape="passenger" />
   <vehicle id="uturnW_22" type="vehicleW_22" route="edgeW_edgeW" depart="22" departLane="6" />

   <vType id="vehicleN_23" length="4.193000" accel="2.756000" decel="3.446000" sigma="0.5" minGap="2.444044" maxSpeed="129.956421" guiShape="passenger" />
   <vehicle id="straightN_23" type="vehicleN_23" route="edgeN_edgeS" depart="23" departLane="3" />

   <vType id="vehicleS_24" length="5.444000" accel="3.242000" decel="3.942000" sigma="0.5" minGap="2.444044" maxSpeed="129.956421" guiShape="passenger" />
   <vehicle id="straightS_24" type="vehicleS_24" route="edgeS_edgeN" depart="23" departLane="4" />

   <vType id="vehicleW_25" length="5.519000" accel="2.981000" decel="4.505000" sigma="0.5" minGap="2.444044" maxSpeed="129.956421" guiShape="passenger" />
   <vehicle id="straightW_25" type="vehicleW_25" route="edgeW_edgeE" depart="24" departLane="4" />

   <vType id="vehicleE_26" length="4.701000" accel="3.328000" decel="3.662000" sigma="0.5" minGap="2.444044" maxSpeed="129.956421" guiShape="passenger" />
   <vehicle id="straightE_26" type="vehicleE_26" route="edgeE_edgeW" depart="24" departLane="6" />

   <vType id="vehicleN_27" length="4.862000" accel="3.103000" decel="3.833000" sigma="0.5" minGap="2.444044" maxSpeed="129.956421" guiShape="passenger" />
   <vehicle id="leftN_27" type="vehicleN_27" route="edgeN_edgeE" depart="25" departLane="4" />

   <vType id="vehicleN_28" length="4.972000" accel="2.964000" decel="4.010000" sigma="0.5" minGap="2.444044" maxSpeed="129.956421" guiShape="passenger" />
   <vehicle id="leftN_28" type="vehicleN_28" route="edgeN_edgeE" depart="26" departLane="5" />

   <vType id="vehicleN_29" length="4.344000" accel="2.648000" decel="4.964000" sigma="0.5" minGap="2.444044" maxSpeed="129.956421" guiShape="passenger" />
   <vehicle id="straightN_29" type="vehicleN_29" route="edgeN_edgeS" depart="27" departLane="2" />

   <vType id="vehicleS_30" length="4.806000" accel="2.374000" decel="4.495000" sigma="0.5" minGap="2.444044" maxSpeed="129.956421" guiShape="passenger" />
   <vehicle id="straightS_30" type="vehicleS_30" route="edgeS_edgeN" depart="27" departLane="4" />

   <vType id="vehicleE_31" length="5.053000" accel="3.023000" decel="5.480000" sigma="0.5" minGap="2.444044" maxSpeed="129.956421" guiShape="passenger" />
   <vehicle id="straightE_31" type="vehicleE_31" route="edgeE_edgeW" depart="28" departLane="6" />

   <vType id="vehicleN_32" length="4.343000" accel="3.088000" decel="5.374000" sigma="0.5" minGap="2.444044" maxSpeed="129.956421" guiShape="passenger" />
   <vehicle id="rightN_32" type="vehicleN_32" route="edgeN_edgeW" depart="29" departLane="1" />

   <vType id="vehicleN_33" length="4.187000" accel="2.682000" decel="4.823000" sigma="0.5" minGap="2.444044" maxSpeed="129.956421" guiShape="passenger" />
   <vehicle id="straightN_33" type="vehicleN_33" route="edgeN_edgeS" depart="30" departLane="3" />

   <vType id="vehicleN_34" length="5.274000" accel="2.303000" decel="4.048000" sigma="0.5" minGap="2.444044" maxSpeed="129.956421" guiShape="passenger" />
   <vehicle id="straightN_34" type="vehicleN_34" route="edgeN_edgeS" depart="31" departLane="2" />

   <vType id="vehicleW_35" length="5.368000" accel="3.393000" decel="4.513000" sigma="0.5" minGap="2.444044" maxSpeed="129.956421" guiShape="passenger" />
   <vehicle id="leftW_35" type="vehicleW_35" route="edgeW_edgeN" depart="32" departLane="6" />

   <vType id="vehicleN_36" length="4.359000" accel="3.387000" decel="5.061000" sigma="0.5" minGap="2.444044" maxSpeed="129.956421" guiShape="passenger" />
   <vehicle id="leftN_36" type="vehicleN_36" route="edgeN_edgeE" depart="33" departLane="4" />

   <vType id="vehicleN_37" length="5.370000" accel="2.762000" decel="4.677000" sigma="0.5" minGap="2.444044" maxSpeed="129.956421" guiShape="passenger" />
   <vehicle id="rightN_37" type="vehicleN_37" route="edgeN_edgeW" depart="34" departLane="1" />

   <vType id="vehicleE_38" length="4.128000" accel="2.770000" decel="3.710000" sigma="0.5" minGap="2.444044" maxSpeed="129.956421" guiShape="passenger" />
   <vehicle id="straightE_38" type="vehicleE_38" route="edgeE_edgeW" depart="34" departLane="4" />

   <vType id="vehicleN_39" length="5.049000" accel="2.732000" decel="3.402000" sigma="0.5" minGap="2.444044" maxSpeed="129.956421" guiShape="passenger" />
   <vehicle id="leftN_39" type="vehicleN_39" route="edgeN_edgeE" depart="36" departLane="5" />

   <vType id="vehicleN_40" length="4.217000" accel="2.277000" decel="3.741000" sigma="0.5" minGap="2.444044" maxSpeed="129.956421" guiShape="passenger" />
   <vehicle id="rightN_40" type="vehicleN_40" route="edgeN_edgeW" depart="37" departLane="1" />

   <vType id="vehicleW_41" length="4.434000" accel="2.893000" decel="4.806000" sigma="0.5" minGap="2.444044" maxSpeed="129.956421" guiShape="passenger" />
   <vehicle id="straightW_41" type="vehicleW_41" route="edgeW_edgeE" depart="37" departLane="6" />

   <vType id="vehicleN_42" length="4.276000" accel="2.983000" decel="5.472000" sigma="0.5" minGap="2.444044" maxSpeed="129.956421" guiShape="passenger" />
   <vehicle id="rightN_42" type="vehicleN_42" route="edgeN_edgeW" depart="38" departLane="1" />

   <vType id="vehicleS_43" length="5.097000" accel="2.645000" decel="4.645000" sigma="0.5" minGap="2.444044" maxSpeed="129.956421" guiShape="passenger" />
   <vehicle id="straightS_43" type="vehicleS_43" route="edgeS_edgeN" depart="38" departLane="4" />

   <vType id="vehicleW_44" length="4.151000" accel="2.304000" decel="4.273000" sigma="0.5" minGap="2.444044" maxSpeed="129.956421" guiShape="passenger" />
   <vehicle id="straightW_44" type="vehicleW_44" route="edgeW_edgeE" depart="38" departLane="6" />

   <vType id="vehicleN_45" length="4.984000" accel="2.666000" decel="4.005000" sigma="0.5" minGap="2.444044" maxSpeed="129.956421" guiShape="passenger" />
   <vehicle id="leftN_45" type="vehicleN_45" route="edgeN_edgeE" depart="40" departLane="4" />

   <vType id="vehicleN_46" length="4.337000" accel="2.409000" decel="4.238000" sigma="0.5" minGap="2.444044" maxSpeed="129.956421" guiShape="passenger" />
   <vehicle id="straightN_46" type="vehicleN_46" route="edgeN_edgeS" depart="41" departLane="3" />

   <vType id="vehicleN_47" length="3.818000" accel="2.611000" decel="4.259000" sigma="0.5" minGap="2.444044" maxSpeed="129.956421" guiShape="passenger" />
   <vehicle id="straightN_47" type="vehicleN_47" route="edgeN_edgeS" depart="42" departLane="4" />

   <vType id="vehicleS_48" length="4.230000" accel="2.641000" decel="5.084000" sigma="0.5" minGap="2.444044" maxSpeed="129.956421" guiShape="passenger" />
   <vehicle id="rightS_48" type="vehicleS_48" route="edgeS_edgeE" depart="45" departLane="1" />

   <vType id="vehicleW_49" length="4.652000" accel="3.324000" decel="3.477000" sigma="0.5" minGap="2.444044" maxSpeed="129.956421" guiShape="passenger" />
   <vehicle id="straightW_49" type="vehicleW_49" route="edgeW_edgeE" depart="45" departLane="5" />

   <vType id="vehicleN_50" length="5.385000" accel="3.338000" decel="5.257000" sigma="0.5" minGap="2.444044" maxSpeed="129.956421" guiShape="passenger" />
   <vehicle id="straightN_50" type="vehicleN_50" route="edgeN_edgeS" depart="47" departLane="3" />

   <vType id="vehicleE_51" length="4.633000" accel="2.921000" decel="4.542000" sigma="0.5" minGap="2.444044" maxSpeed="129.956421" guiShape="passenger" />
   <vehicle id="leftE_51" type="vehicleE_51" route="edgeE_edgeS" depart="48" departLane="6" />

   <vType id="vehicleN_52" length="4.319000" accel="2.592000" decel="4.018000" sigma="0.5" minGap="2.444044" maxSpeed="129.956421" guiShape="passenger" />
   <vehicle id="leftN_52" type="vehicleN_52" route="edgeN_edgeE" depart="53" departLane="4" />

   <vType id="vehicleS_53" length="5.036000" accel="3.143000" decel="3.458000" sigma="0.5" minGap="2.444044" maxSpeed="129.956421" guiShape="passenger" />
   <vehicle id="leftS_53" type="vehicleS_53" route="edgeS_edgeW" depart="53" departLane="5" />

   <vType id="vehicleN_54" length="4.501000" accel="3.223000" decel="5.390000" sigma="0.5" minGap="2.444044" maxSpeed="129.956421" guiShape="passenger" />
   <vehicle id="rightN_54" type="vehicleN_54" route="edgeN_edgeW" depart="54" departLane="1" />

   <vType id="vehicleN_55" length="5.141000" accel="3.329000" decel="5.406000" sigma="0.5" minGap="2.444044" maxSpeed="129.956421" guiShape="passenger" />
   <vehicle id="straightN_55" type="vehicleN_55" route="edgeN_edgeS" depart="55" departLane="3" />

   <vType id="vehicleN_56" length="5.219000" accel="3.165000" decel="5.159000" sigma="0.5" minGap="2.444044" maxSpeed="129.956421" guiShape="passenger" />
   <vehicle id="straightN_56" type="vehicleN_56" route="edgeN_edgeS" depart="57" departLane="2" />

   <vType id="vehicleW_57" length="5.340000" accel="2.478000" decel="3.887000" sigma="0.5" minGap="2.444044" maxSpeed="129.956421" guiShape="passenger" />
   <vehicle id="straightW_57" type="vehicleW_57" route="edgeW_edgeE" depart="58" departLane="4" />

   <vType id="vehicleE_58" length="5.154000" accel="2.728000" decel="4.965000" sigma="0.5" minGap="2.444044" maxSpeed="129.956421" guiShape="passenger" />
   <vehicle id="straightE_58" type="vehicleE_58" route="edgeE_edgeW" depart="58" departLane="5" />

   <vType id="vehicleN_59" length="3.852000" accel="2.931000" decel="5.508000" sigma="0.5" minGap="2.444044" maxSpeed="129.956421" guiShape="passenger" />
   <vehicle id="leftN_59" type="vehicleN_59" route="edgeN_edgeE" depart="59" departLane="5" />

   <vType id="vehicleW_60" length="3.888000" accel="2.287000" decel="3.859000" sigma="0.5" minGap="2.444044" maxSpeed="129.956421" guiShape="passenger" />
   <vehicle id="rightW_60" type="vehicleW_60" route="edgeW_edgeS" depart="59" departLane="1" />

   <vType id="vehicleN_61" length="4.018000" accel="3.449000" decel="4.336000" sigma="0.5" minGap="2.444044" maxSpeed="129.956421" guiShape="passenger" />
   <vehicle id="straightN_61" type="vehicleN_61" route="edgeN_edgeS" depart="60" departLane="3" />

   <vType id="vehicleW_62" length="5.131000" accel="2.393000" decel="5.112000" sigma="0.5" minGap="2.444044" maxSpeed="129.956421" guiShape="passenger" />
   <vehicle id="straightW_62" type="vehicleW_62" route="edgeW_edgeE" depart="60" departLane="4" />

   <vType id="vehicleE_63" length="4.365000" accel="3.106000" decel="5.416000" sigma="0.5" minGap="2.444044" maxSpeed="129.956421" guiShape="passenger" />
   <vehicle id="leftE_63" type="vehicleE_63" route="edgeE_edgeS" depart="60" departLane="6" />

   <vType id="vehicleN_64" length="4.347000" accel="3.115000" decel="5.082000" sigma="0.5" minGap="2.444044" maxSpeed="129.956421" guiShape="passenger" />
   <vehicle id="straightN_64" type="vehicleN_64" route="edgeN_edgeS" depart="62" departLane="4" />

   <vType id="vehicleN_65" length="4.417000" accel="3.324000" decel="5.119000" sigma="0.5" minGap="2.444044" maxSpeed="129.956421" guiShape="passenger" />
   <vehicle id="straightN_65" type="vehicleN_65" route="edgeN_edgeS" depart="63" departLane="2" />

   <vType id="vehicleS_66" length="4.734000" accel="3.072000" decel="4.667000" sigma="0.5" minGap="2.444044" maxSpeed="129.956421" guiShape="passenger" />
   <vehicle id="leftS_66" type="vehicleS_66" route="edgeS_edgeW" depart="64" departLane="5" />

   <vType id="vehicleN_67" length="5.135000" accel="2.970000" decel="4.781000" sigma="0.5" minGap="2.444044" maxSpeed="129.956421" guiShape="passenger" />
   <vehicle id="straightN_67" type="vehicleN_67" route="edgeN_edgeS" depart="66" departLane="3" />

   <vType id="vehicleS_68" length="4.137000" accel="2.516000" decel="5.065000" sigma="0.5" minGap="2.444044" maxSpeed="129.956421" guiShape="passenger" />
   <vehicle id="rightS_68" type="vehicleS_68" route="edgeS_edgeE" depart="66" departLane="1" />

   <vType id="vehicleE_69" length="4.531000" accel="2.951000" decel="3.844000" sigma="0.5" minGap="2.444044" maxSpeed="129.956421" guiShape="passenger" />
   <vehicle id="straightE_69" type="vehicleE_69" route="edgeE_edgeW" depart="67" departLane="5" />

   <vType id="vehicleE_70" length="5.032000" accel="2.635000" decel="4.591000" sigma="0.5" minGap="2.444044" maxSpeed="129.956421" guiShape="passenger" />
   <vehicle id="straightE_70" type="vehicleE_70" route="edgeE_edgeW" depart="68" departLane="5" />

   <vType id="vehicleN_71" length="4.356000" accel="2.540000" decel="4.897000" sigma="0.5" minGap="2.444044" maxSpeed="129.956421" guiShape="passenger" />
   <vehicle id="straightN_71" type="vehicleN_71" route="edgeN_edgeS" depart="70" departLane="3" />

   <vType id="vehicleS_72" length="5.156000" accel="2.482000" decel="3.791000" sigma="0.5" minGap="2.444044" maxSpeed="129.956421" guiShape="passenger" />
   <vehicle id="straightS_72" type="vehicleS_72" route="edgeS_edgeN" depart="70" departLane="3" />

   <vType id="vehicleN_73" length="4.348000" accel="3.145000" decel="3.595000" sigma="0.5" minGap="2.444044" maxSpeed="129.956421" guiShape="passenger" />
   <vehicle id="straightN_73" type="vehicleN_73" route="edgeN_edgeS" depart="72" departLane="2" />

   <vType id="vehicleN_74" length="4.680000" accel="3.353000" decel="4.575000" sigma="0.5" minGap="2.444044" maxSpeed="129.956421" guiShape="passenger" />
   <vehicle id="rightN_74" type="vehicleN_74" route="edgeN_edgeW" depart="73" departLane="1" />

   <vType id="vehicleN_75" length="4.018000" accel="2.330000" decel="4.395000" sigma="0.5" minGap="2.444044" maxSpeed="129.956421" guiShape="passenger" />
   <vehicle id="rightN_75" type="vehicleN_75" route="edgeN_edgeW" depart="74" departLane="1" />

   <vType id="vehicleS_76" length="5.484000" accel="2.355000" decel="3.861000" sigma="0.5" minGap="2.444044" maxSpeed="129.956421" guiShape="passenger" />
   <vehicle id="rightS_76" type="vehicleS_76" route="edgeS_edgeE" depart="74" departLane="1" />

   <vType id="vehicleN_77" length="4.609000" accel="2.808000" decel="5.202000" sigma="0.5" minGap="2.444044" maxSpeed="129.956421" guiShape="passenger" />
   <vehicle id="straightN_77" type="vehicleN_77" route="edgeN_edgeS" depart="75" departLane="3" />

   <vType id="vehicleE_78" length="4.093000" accel="2.468000" decel="3.482000" sigma="0.5" minGap="2.444044" maxSpeed="129.956421" guiShape="passenger" />
   <vehicle id="straightE_78" type="vehicleE_78" route="edgeE_edgeW" depart="76" departLane="2" />

   <vType id="vehicleN_79" length="4.643000" accel="2.289000" decel="3.949000" sigma="0.5" minGap="2.444044" maxSpeed="129.956421" guiShape="passenger" />
   <vehicle id="straightN_79" type="vehicleN_79" route="edgeN_edgeS" depart="77" departLane="3" />

   <vType id="vehicleW_80" length="4.358000" accel="3.197000" decel="4.564000" sigma="0.5" minGap="2.444044" maxSpeed="129.956421" guiShape="passenger" />
   <vehicle id="leftW_80" type="vehicleW_80" route="edgeW_edgeN" depart="80" departLane="6" />

   <vType id="vehicleW_81" length="5.002000" accel="3.338000" decel="4.604000" sigma="0.5" minGap="2.444044" maxSpeed="129.956421" guiShape="passenger" />
   <vehicle id="straightW_81" type="vehicleW_81" route="edgeW_edgeE" depart="83" departLane="2" />

   <vType id="vehicleW_82" length="4.644000" accel="3.073000" decel="5.324000" sigma="0.5" minGap="2.444044" maxSpeed="129.956421" guiShape="passenger" />
   <vehicle id="straightW_82" type="vehicleW_82" route="edgeW_edgeE" depart="84" departLane="3" />

   <vType id="vehicleN_83" length="5.519000" accel="2.843000" decel="4.212000" sigma="0.5" minGap="2.444044" maxSpeed="129.956421" guiShape="passenger" />
   <vehicle id="rightN_83" type="vehicleN_83" route="edgeN_edgeW" depart="85" departLane="1" />

   <vType id="vehicleE_84" length="5.146000" accel="3.040000" decel="4.982000" sigma="0.5" minGap="2.444044" maxSpeed="129.956421" guiShape="passenger" />
   <vehicle id="straightE_84" type="vehicleE_84" route="edgeE_edgeW" depart="89" departLane="3" />

   <vType id="vehicleN_85" length="4.323000" accel="3.364000" decel="4.379000" sigma="0.5" minGap="2.444044" maxSpeed="129.956421" guiShape="passenger" />
   <vehicle id="leftN_85" type="vehicleN_85" route="edgeN_edgeE" depart="90" departLane="4" />

   <vType id="vehicleN_86" length="4.787000" accel="2.366000" decel="5.491000" sigma="0.5" minGap="2.444044" maxSpeed="129.956421" guiShape="passenger" />
   <vehicle id="straightN_86" type="vehicleN_86" route="edgeN_edgeS" depart="91" departLane="2" />

   <vType id="vehicleW_87" length="4.693000" accel="3.156000" decel="4.432000" sigma="0.5" minGap="2.444044" maxSpeed="129.956421" guiShape="passenger" />
   <vehicle id="straightW_87" type="vehicleW_87" route="edgeW_edgeE" depart="91" departLane="4" />

   <vType id="vehicleE_88" length="4.870000" accel="3.193000" decel="3.617000" sigma="0.5" minGap="2.444044" maxSpeed="129.956421" guiShape="passenger" />
   <vehicle id="leftE_88" type="vehicleE_88" route="edgeE_edgeS" depart="92" departLane="6" />

   <vType id="vehicleN_89" length="4.546000" accel="3.431000" decel="4.430000" sigma="0.5" minGap="2.444044" maxSpeed="129.956421" guiShape="passenger" />
   <vehicle id="rightN_89" type="vehicleN_89" route="edgeN_edgeW" depart="93" departLane="1" />

   <vType id="vehicleW_90" length="4.424000" accel="2.947000" decel="4.508000" sigma="0.5" minGap="2.444044" maxSpeed="129.956421" guiShape="passenger" />
   <vehicle id="straightW_90" type="vehicleW_90" route="edgeW_edgeE" depart="94" departLane="5" />

   <vType id="vehicleS_91" length="4.039000" accel="3.471000" decel="4.045000" sigma="0.5" minGap="2.444044" maxSpeed="129.956421" guiShape="passenger" />
   <vehicle id="rightS_91" type="vehicleS_91" route="edgeS_edgeE" depart="98" departLane="1" />

   <vType id="vehicleS_92" length="5.519000" accel="2.676000" decel="4.835000" sigma="0.5" minGap="2.444044" maxSpeed="129.956421" guiShape="passenger" />
   <vehicle id="straightS_92" type="vehicleS_92" route="edgeS_edgeN" depart="100" departLane="4" />

   <vType id="vehicleW_93" length="5.002000" accel="2.924000" decel="5.407000" sigma="0.5" minGap="2.444044" maxSpeed="129.956421" guiShape="passenger" />
   <vehicle id="straightW_93" type="vehicleW_93" route="edgeW_edgeE" depart="100" departLane="5" />

   <vType id="vehicleN_94" length="4.926000" accel="3.415000" decel="5.502000" sigma="0.5" minGap="2.444044" maxSpeed="129.956421" guiShape="passenger" />
   <vehicle id="leftN_94" type="vehicleN_94" route="edgeN_edgeE" depart="101" departLane="4" />

   <vType id="vehicleW_95" length="5.350000" accel="2.810000" decel="4.838000" sigma="0.5" minGap="2.444044" maxSpeed="129.956421" guiShape="passenger" />
   <vehicle id="straightW_95" type="vehicleW_95" route="edgeW_edgeE" depart="101" departLane="2" />

   <vType id="vehicleE_96" length="4.333000" accel="2.722000" decel="3.636000" sigma="0.5" minGap="2.444044" maxSpeed="129.956421" guiShape="passenger" />
   <vehicle id="straightE_96" type="vehicleE_96" route="edgeE_edgeW" depart="101" departLane="6" />

   <vType id="vehicleN_97" length="4.134000" accel="2.469000" decel="4.653000" sigma="0.5" minGap="2.444044" maxSpeed="129.956421" guiShape="passenger" />
   <vehicle id="straightN_97" type="vehicleN_97" route="edgeN_edgeS" depart="102" departLane="3" />

   <vType id="vehicleN_98" length="4.264000" accel="2.571000" decel="3.338000" sigma="0.5" minGap="2.444044" maxSpeed="129.956421" guiShape="passenger" />
   <vehicle id="straightN_98" type="vehicleN_98" route="edgeN_edgeS" depart="103" departLane="3" />

   <vType id="vehicleE_99" length="4.424000" accel="2.992000" decel="4.717000" sigma="0.5" minGap="2.444044" maxSpeed="129.956421" guiShape="passenger" />
   <vehicle id="straightE_99" type="vehicleE_99" route="edgeE_edgeW" depart="103" departLane="5" />

   <vType id="vehicleS_100" length="4.448000" accel="2.622000" decel="4.849000" sigma="0.5" minGap="2.444044" maxSpeed="129.956421" guiShape="passenger" />
   <vehicle id="straightS_100" type="vehicleS_100" route="edgeS_edgeN" depart="105" departLane="2" />

   <vType id="vehicleN_101" length="5.022000" accel="3.191000" decel="3.425000" sigma="0.5" minGap="2.444044" maxSpeed="129.956421" guiShape="passenger" />
   <vehicle id="straightN_101" type="vehicleN_101" route="edgeN_edgeS" depart="106" departLane="4" />

   <vType id="vehicleE_102" length="4.258000" accel="3.205000" decel="4.999000" sigma="0.5" minGap="2.444044" maxSpeed="129.956421" guiShape="passenger" />
   <vehicle id="leftE_102" type="vehicleE_102" route="edgeE_edgeS" depart="107" departLane="6" />

   <vType id="vehicleN_103" length="5.104000" accel="2.362000" decel="3.964000" sigma="0.5" minGap="2.444044" maxSpeed="129.956421" guiShape="passenger" />
   <vehicle id="straightN_103" type="vehicleN_103" route="edgeN_edgeS" depart="109" departLane="4" />

   <vType id="vehicleW_104" length="5.357000" accel="2.711000" decel="4.417000" sigma="0.5" minGap="2.444044" maxSpeed="129.956421" guiShape="passenger" />
   <vehicle id="straightW_104" type="vehicleW_104" route="edgeW_edgeE" depart="109" departLane="4" />

   <vType id="vehicleN_105" length="4.664000" accel="3.270000" decel="4.953000" sigma="0.5" minGap="2.444044" maxSpeed="129.956421" guiShape="passenger" />
   <vehicle id="rightN_105" type="vehicleN_105" route="edgeN_edgeW" depart="110" departLane="1" />

   <vType id="vehicleE_106" length="4.214000" accel="3.105000" decel="4.795000" sigma="0.5" minGap="2.444044" maxSpeed="129.956421" guiShape="passenger" />
   <vehicle id="straightE_106" type="vehicleE_106" route="edgeE_edgeW" depart="110" departLane="5" />

   <vType id="vehicleN_107" length="4.616000" accel="3.100000" decel="4.790000" sigma="0.5" minGap="2.444044" maxSpeed="129.956421" guiShape="passenger" />
   <vehicle id="straightN_107" type="vehicleN_107" route="edgeN_edgeS" depart="112" departLane="4" />

   <vType id="vehicleN_108" length="4.955000" accel="3.053000" decel="4.334000" sigma="0.5" minGap="2.444044" maxSpeed="129.956421" guiShape="passenger" />
   <vehicle id="straightN_108" type="vehicleN_108" route="edgeN_edgeS" depart="114" departLane="4" />

   <vType id="vehicleE_109" length="4.352000" accel="2.872000" decel="3.530000" sigma="0.5" minGap="2.444044" maxSpeed="129.956421" guiShape="passenger" />