<additional>
   <tlLogic id="juncMain" type="static" programID="1" offset="0">
       <phase duration="20.981595" state="GGGGrrrrrGGGGrrrrrrGrG"/>
       <phase duration="5.256949" state="yyyyrrrrryyyyrrrrrrGrG"/>
       <phase duration="13.095238" state="rrrrrrrrrrrrrrrrrrrGrG"/>
       <phase duration="58.038166" state="rrrrgGGGGrrrrgGGGGGrGr"/>
       <phase duration="3.936881" state="rrrryyyyyrrrryyyyyGrGr"/>
       <phase duration="8.071683" state="rrrrrrrrrrrrrrrrrrGrGr"/>
   </tlLogic>
</additional>
