<additional>
   <tlLogic id="juncMain" type="static" programID="1" offset="0">
       <phase duration="50.368985" state="GGggGgggrrrrrrrrrGGggGgggrrrrrrrrrrGrG"/>
       <phase duration="5.298804" state="yyyyyyyyrrrrrrrrryyyyyyyyrrrrrrrrrrGrG"/>
       <phase duration="6.052488" state="rrrrrrrrrrrrrrrrrrrrrrrrrrrrrrrrrrrGrG"/>
       <phase duration="52.367853" state="rrrrrrrrggGggGgggrrrrrrrrggGggGgggGrGr"/>
       <phase duration="5.027163" state="rrrrrrrryyyyyyyyyrrrrrrrryyyyyyyyyGrGr"/>
       <phase duration="13.603213" state="rrrrrrrrrrrrrrrrrrrrrrrrrrrrrrrrrrGrGr"/>
       <phase duration="24.555845" state="rrrrrGGGrrrrrrrrrrrrrrGGGrrrrrrrrrrrrr"/>
   </tlLogic>
</additional>
