<?xml version="1.0" encoding="UTF-8"?>

<!-- generated on 2021-10-16 22:12:40 by Eclipse SUMO netconvert Version 1.10.0
<configuration xmlns:xsi="http://www.w3.org/2001/XMLSchema-instance" xsi:noNamespaceSchemaLocation="http://sumo.dlr.de/xsd/netconvertConfiguration.xsd">

    <input>
        <node-files value="data/cross.nod.xml"/>
        <edge-files value="data/cross.edg.xml"/>
        <connection-files value="data/cross.con.xml"/>
    </input>

    <output>
        <output-file value="data/cross.net.xml"/>
    </output>

    <junctions>
        <no-turnarounds.except-turnlane value="true"/>
    </junctions>

    <report>
        <aggregate-warnings value="5"/>
    </report>

</configuration>
-->

<net version="1.9" junctionCornerDetail="5" limitTurnSpeed="5.50" xmlns:xsi="http://www.w3.org/2001/XMLSchema-instance" xsi:noNamespaceSchemaLocation="http://sumo.dlr.de/xsd/net_file.xsd">

    <location netOffset="500.00,500.00" convBoundary="0.00,0.00,1000.00,1000.00" origBoundary="-500.00,-500.00,500.00,500.00" projParameter="!"/>

    <edge id=":juncE_0" function="internal">
        <lane id=":juncE_0_0" index="0" speed="3.65" length="4.67" shape="1000.00,498.40 1001.20,499.20 1001.60,500.00 1001.20,500.80 1000.00,501.60"/>
    </edge>
    <edge id=":juncE_w0" function="walkingarea">
        <lane id=":juncE_w0_0" index="0" allow="pedestrian" speed="1.00" length="28.80" width="3.20" shape="1000.00,500.00 1000.00,503.20 1000.00,503.20 1000.00,506.40 1000.00,506.40 1000.00,509.60 1000.00,509.60 1000.00,512.80 1000.00,512.80 1000.00,516.00 1000.00,484.00 1000.00,487.20 1000.00,487.20 1000.00,490.40 1000.00,490.40 1000.00,493.60 1000.00,493.60 1000.00,496.80 1000.00,496.80 1000.00,500.00"/>
    </edge>
    <edge id=":juncMain_0" function="internal">
        <lane id=":juncMain_0_0" index="0" speed="6.86" length="5.93" shape="488.80,517.50 488.41,514.74 487.23,512.77 486.50,512.34"/>
        <lane id=":juncMain_0_1" index="1" speed="7.64" length="8.35" shape="488.80,517.50 488.41,513.34 487.23,510.38 486.50,509.72"/>
    </edge>
    <edge id=":juncMain_2" function="internal">
        <lane id=":juncMain_2_0" index="0" speed="15.00" length="35.00" shape="488.80,517.50 488.80,482.50"/>
        <lane id=":juncMain_2_1" index="1" speed="15.00" length="35.00" shape="492.00,517.50 492.00,482.50"/>
        <lane id=":juncMain_2_2" index="2" speed="15.00" length="35.00" shape="495.20,517.50 495.20,482.50"/>
    </edge>
    <edge id=":juncMain_5" function="internal">
        <lane id=":juncMain_5_0" index="0" speed="12.47" length="20.81" shape="495.20,517.50 496.59,507.74 500.77,500.78 503.20,499.32"/>
        <lane id=":juncMain_5_1" index="1" speed="12.03" length="18.49" shape="495.20,517.50 496.59,509.14 500.77,503.17 503.20,501.93"/>
        <lane id=":juncMain_5_2" index="2" speed="12.03" length="17.66" shape="498.40,517.50 499.59,507.74 503.17,500.78"/>
        <lane id=":juncMain_5_3" index="3" speed="11.57" length="15.40" shape="498.40,517.50 499.59,509.14 503.17,503.17"/>
    </edge>
    <edge id=":juncMain_9" function="internal">
        <lane id=":juncMain_9_0" index="0" speed="3.65" length="2.34" shape="498.40,517.50 499.20,516.30 500.00,515.90"/>
    </edge>
    <edge id=":juncMain_40" function="internal">
        <lane id=":juncMain_40_0" index="0" speed="6.86" length="4.23" shape="486.50,512.34 485.26,511.59 482.50,511.20"/>
    </edge>
    <edge id=":juncMain_41" function="internal">
        <lane id=":juncMain_41_0" index="0" speed="7.64" length="4.50" shape="486.50,509.72 485.26,508.59 482.50,508.00"/>
    </edge>
    <edge id=":juncMain_42" function="internal">
        <lane id=":juncMain_42_0" index="0" speed="12.47" length="15.15" shape="503.20,499.32 507.74,496.59 517.50,495.20"/>
    </edge>
    <edge id=":juncMain_43" function="internal">
        <lane id=":juncMain_43_0" index="0" speed="12.03" length="14.94" shape="503.20,501.93 507.74,499.59 517.50,498.40"/>
    </edge>
    <edge id=":juncMain_44" function="internal">
        <lane id=":juncMain_44_0" index="0" speed="12.03" length="15.76" shape="503.17,500.78 509.14,496.59 517.50,495.20"/>
    </edge>
    <edge id=":juncMain_45" function="internal">
        <lane id=":juncMain_45_0" index="0" speed="11.57" length="15.40" shape="503.17,503.17 509.14,499.59 517.50,498.40"/>
    </edge>
    <edge id=":juncMain_46" function="internal">
        <lane id=":juncMain_46_0" index="0" speed="3.65" length="2.34" shape="500.00,515.90 500.80,516.30 501.60,517.50"/>
    </edge>
    <edge id=":juncMain_10" function="internal">
        <lane id=":juncMain_10_0" index="0" speed="6.86" length="5.93" shape="517.50,511.20 514.74,511.59 512.77,512.77 512.34,513.50"/>
        <lane id=":juncMain_10_1" index="1" speed="7.64" length="8.35" shape="517.50,511.20 513.34,511.59 510.38,512.77 509.72,513.50"/>
    </edge>
    <edge id=":juncMain_12" function="internal">
        <lane id=":juncMain_12_0" index="0" speed="15.00" length="35.00" shape="517.50,511.20 482.50,511.20"/>
        <lane id=":juncMain_12_1" index="1" speed="15.00" length="35.00" shape="517.50,508.00 482.50,508.00"/>
        <lane id=":juncMain_12_2" index="2" speed="15.00" length="35.00" shape="517.50,504.80 482.50,504.80"/>
    </edge>
    <edge id=":juncMain_15" function="internal">
        <lane id=":juncMain_15_0" index="0" speed="12.47" length="20.81" shape="517.50,504.80 507.74,503.41 500.78,499.23 499.32,496.80"/>
        <lane id=":juncMain_15_1" index="1" speed="12.03" length="18.49" shape="517.50,504.80 509.14,503.41 503.17,499.23 501.93,496.80"/>
        <lane id=":juncMain_15_2" index="2" speed="12.03" length="17.66" shape="517.50,501.60 507.74,500.41 500.78,496.83"/>
        <lane id=":juncMain_15_3" index="3" speed="11.57" length="15.40" shape="517.50,501.60 509.14,500.41 503.17,496.83"/>
    </edge>
    <edge id=":juncMain_19" function="internal">
        <lane id=":juncMain_19_0" index="0" speed="3.65" length="2.34" shape="517.50,501.60 516.30,500.80 515.90,500.00"/>
    </edge>
    <edge id=":juncMain_47" function="internal">
        <lane id=":juncMain_47_0" index="0" speed="6.86" length="4.23" shape="512.34,513.50 511.59,514.74 511.20,517.50"/>
    </edge>
    <edge id=":juncMain_48" function="internal">
        <lane id=":juncMain_48_0" index="0" speed="7.64" length="4.50" shape="509.72,513.50 508.59,514.74 508.00,517.50"/>
    </edge>
    <edge id=":juncMain_49" function="internal">
        <lane id=":juncMain_49_0" index="0" speed="12.47" length="15.15" shape="499.32,496.80 496.59,492.26 495.20,482.50"/>
    </edge>
    <edge id=":juncMain_50" function="internal">
        <lane id=":juncMain_50_0" index="0" speed="12.03" length="14.94" shape="501.93,496.80 499.59,492.26 498.40,482.50"/>
    </edge>
    <edge id=":juncMain_51" function="internal">
        <lane id=":juncMain_51_0" index="0" speed="12.03" length="15.76" shape="500.78,496.83 496.59,490.86 495.20,482.50"/>
    </edge>
    <edge id=":juncMain_52" function="internal">
        <lane id=":juncMain_52_0" index="0" speed="11.57" length="15.40" shape="503.17,496.83 499.59,490.86 498.40,482.50"/>
    </edge>
    <edge id=":juncMain_53" function="internal">
        <lane id=":juncMain_53_0" index="0" speed="3.65" length="2.34" shape="515.90,500.00 516.30,499.20 517.50,498.40"/>
    </edge>
    <edge id=":juncMain_20" function="internal">
        <lane id=":juncMain_20_0" index="0" speed="6.86" length="5.93" shape="511.20,482.50 511.59,485.26 512.77,487.22 513.50,487.66"/>
        <lane id=":juncMain_20_1" index="1" speed="7.64" length="8.35" shape="511.20,482.50 511.59,486.66 512.77,489.62 513.50,490.28"/>
    </edge>
    <edge id=":juncMain_22" function="internal">
        <lane id=":juncMain_22_0" index="0" speed="15.00" length="35.00" shape="511.20,482.50 511.20,517.50"/>
        <lane id=":juncMain_22_1" index="1" speed="15.00" length="35.00" shape="508.00,482.50 508.00,517.50"/>
        <lane id=":juncMain_22_2" index="2" speed="15.00" length="35.00" shape="504.80,482.50 504.80,517.50"/>
    </edge>
    <edge id=":juncMain_25" function="internal">
        <lane id=":juncMain_25_0" index="0" speed="12.47" length="20.81" shape="504.80,482.50 503.41,492.26 499.23,499.22 496.80,500.68"/>
        <lane id=":juncMain_25_1" index="1" speed="12.03" length="18.49" shape="504.80,482.50 503.41,490.86 499.23,496.83 496.80,498.07"/>
        <lane id=":juncMain_25_2" index="2" speed="12.03" length="17.66" shape="501.60,482.50 500.41,492.26 496.83,499.22"/>
        <lane id=":juncMain_25_3" index="3" speed="11.57" length="15.40" shape="501.60,482.50 500.41,490.86 496.83,496.83"/>
    </edge>
    <edge id=":juncMain_29" function="internal">
        <lane id=":juncMain_29_0" index="0" speed="3.65" length="2.34" shape="501.60,482.50 500.80,483.70 500.00,484.10"/>
    </edge>
    <edge id=":juncMain_54" function="internal">
        <lane id=":juncMain_54_0" index="0" speed="6.86" length="4.23" shape="513.50,487.66 514.74,488.41 517.50,488.80"/>
    </edge>
    <edge id=":juncMain_55" function="internal">
        <lane id=":juncMain_55_0" index="0" speed="7.64" length="4.50" shape="513.50,490.28 514.74,491.41 517.50,492.00"/>
    </edge>
    <edge id=":juncMain_56" function="internal">
        <lane id=":juncMain_56_0" index="0" speed="12.47" length="15.15" shape="496.80,500.68 492.26,503.41 482.50,504.80"/>
    </edge>
    <edge id=":juncMain_57" function="internal">
        <lane id=":juncMain_57_0" index="0" speed="12.03" length="14.94" shape="496.80,498.07 492.26,500.41 482.50,501.60"/>
    </edge>
    <edge id=":juncMain_58" function="internal">
        <lane id=":juncMain_58_0" index="0" speed="12.03" length="15.76" shape="496.83,499.22 490.86,503.41 482.50,504.80"/>
    </edge>
    <edge id=":juncMain_59" function="internal">
        <lane id=":juncMain_59_0" index="0" speed="11.57" length="15.40" shape="496.83,496.83 490.86,500.41 482.50,501.60"/>
    </edge>
    <edge id=":juncMain_60" function="internal">
        <lane id=":juncMain_60_0" index="0" speed="3.65" length="2.34" shape="500.00,484.10 499.20,483.70 498.40,482.50"/>
    </edge>
    <edge id=":juncMain_30" function="internal">
        <lane id=":juncMain_30_0" index="0" speed="6.86" length="5.93" shape="482.50,488.80 485.26,488.41 487.22,487.23 487.66,486.50"/>
        <lane id=":juncMain_30_1" index="1" speed="7.64" length="8.35" shape="482.50,488.80 486.66,488.41 489.62,487.23 490.28,486.50"/>
    </edge>
    <edge id=":juncMain_32" function="internal">
        <lane id=":juncMain_32_0" index="0" speed="15.00" length="35.00" shape="482.50,488.80 517.50,488.80"/>
        <lane id=":juncMain_32_1" index="1" speed="15.00" length="35.00" shape="482.50,492.00 517.50,492.00"/>
        <lane id=":juncMain_32_2" index="2" speed="15.00" length="35.00" shape="482.50,495.20 517.50,495.20"/>
    </edge>
    <edge id=":juncMain_35" function="internal">
        <lane id=":juncMain_35_0" index="0" speed="12.47" length="20.81" shape="482.50,495.20 492.26,496.59 499.22,500.77 500.68,503.20"/>
        <lane id=":juncMain_35_1" index="1" speed="12.03" length="18.49" shape="482.50,495.20 490.86,496.59 496.83,500.77 498.07,503.20"/>
        <lane id=":juncMain_35_2" index="2" speed="12.03" length="17.66" shape="482.50,498.40 492.26,499.59 499.22,503.17"/>
        <lane id=":juncMain_35_3" index="3" speed="11.57" length="15.40" shape="482.50,498.40 490.86,499.59 496.83,503.17"/>
    </edge>
    <edge id=":juncMain_39" function="internal">
        <lane id=":juncMain_39_0" index="0" speed="3.65" length="2.34" shape="482.50,498.40 483.70,499.20 484.10,500.00"/>
    </edge>
    <edge id=":juncMain_61" function="internal">
        <lane id=":juncMain_61_0" index="0" speed="6.86" length="4.23" shape="487.66,486.50 488.41,485.26 488.80,482.50"/>
    </edge>
    <edge id=":juncMain_62" function="internal">
        <lane id=":juncMain_62_0" index="0" speed="7.64" length="4.50" shape="490.28,486.50 491.41,485.26 492.00,482.50"/>
    </edge>
    <edge id=":juncMain_63" function="internal">
        <lane id=":juncMain_63_0" index="0" speed="12.47" length="15.15" shape="500.68,503.20 503.41,507.74 504.80,517.50"/>
    </edge>
    <edge id=":juncMain_64" function="internal">
        <lane id=":juncMain_64_0" index="0" speed="12.03" length="14.94" shape="498.07,503.20 500.41,507.74 501.60,517.50"/>
    </edge>
    <edge id=":juncMain_65" function="internal">
        <lane id=":juncMain_65_0" index="0" speed="12.03" length="15.76" shape="499.22,503.17 503.41,509.14 504.80,517.50"/>
    </edge>
    <edge id=":juncMain_66" function="internal">
        <lane id=":juncMain_66_0" index="0" speed="11.57" length="15.40" shape="496.83,503.17 500.41,509.14 501.60,517.50"/>
    </edge>
    <edge id=":juncMain_67" function="internal">
        <lane id=":juncMain_67_0" index="0" speed="3.65" length="2.34" shape="484.10,500.00 483.70,500.80 482.50,501.60"/>
    </edge>
    <edge id=":juncMain_c0" function="crossing" crossingEdges="edgeN_I edgeN_O">
        <lane id=":juncMain_c0_0" index="0" allow="pedestrian" speed="1.00" length="25.60" width="4.00" shape="512.80,515.50 487.20,515.50"/>
    </edge>
    <edge id=":juncMain_c1" function="crossing" crossingEdges="edgeE_I edgeE_O">
        <lane id=":juncMain_c1_0" index="0" allow="pedestrian" speed="1.00" length="25.60" width="4.00" shape="515.50,487.20 515.50,512.80"/>
    </edge>
    <edge id=":juncMain_c2" function="crossing" crossingEdges="edgeS_I edgeS_O">
        <lane id=":juncMain_c2_0" index="0" allow="pedestrian" speed="1.00" length="25.60" width="4.00" shape="487.20,484.50 512.80,484.50"/>
    </edge>
    <edge id=":juncMain_c3" function="crossing" crossingEdges="edgeW_I edgeW_O">
        <lane id=":juncMain_c3_0" index="0" allow="pedestrian" speed="1.00" length="25.60" width="4.00" shape="484.50,512.80 484.50,487.20"/>
    </edge>
    <edge id=":juncMain_w0" function="walkingarea">
        <lane id=":juncMain_w0_0" index="0" allow="pedestrian" speed="1.00" length="31.82" width="3.20" shape="484.00,517.50 487.20,517.50 487.20,517.50 490.40,517.50 490.40,517.50 493.60,517.50 493.60,517.50 496.80,517.50 496.80,517.50 500.00,517.50 500.00,517.50 503.20,517.50 503.20,517.50 506.40,517.50 506.40,517.50 509.60,517.50 509.60,517.50 512.80,517.50 512.80,517.50 516.00,517.50 517.50,516.00 517.50,512.80 517.50,512.80 517.50,509.60 517.50,509.60 517.50,506.40 517.50,506.40 517.50,503.20 517.50,503.20 517.50,500.00 517.50,500.00 517.50,496.80 517.50,496.80 517.50,493.60 517.50,493.60 517.50,490.40 517.50,490.40 517.50,487.20 517.50,487.20 517.50,484.00 516.00,482.50 512.80,482.50 512.80,482.50 509.60,482.50 509.60,482.50 506.40,482.50 506.40,482.50 503.20,482.50 503.20,482.50 500.00,482.50 500.00,482.50 496.80,482.50 496.80,482.50 493.60,482.50 493.60,482.50 490.40,482.50 490.40,482.50 487.20,482.50 487.20,482.50 484.00,482.50 482.50,484.00 482.50,487.20 482.50,487.20 482.50,490.40 482.50,490.40 482.50,493.60 482.50,493.60 482.50,496.80 482.50,496.80 482.50,500.00 482.50,500.00 482.50,503.20 482.50,503.20 482.50,506.40 482.50,506.40 482.50,509.60 482.50,509.60 482.50,512.80 482.50,512.80 482.50,516.00 483.96,517.04 483.83,516.67 483.62,516.38 483.33,516.17 482.96,516.04"/>
    </edge>
    <edge id=":juncMain_w1" function="walkingarea">
        <lane id=":juncMain_w1_0" index="0" allow="pedestrian" speed="1.00" length="3.82" width="4.00" shape="487.20,513.50 487.20,517.50 482.50,512.80 486.50,512.80"/>
    </edge>
    <edge id=":juncMain_w2" function="walkingarea">
        <lane id=":juncMain_w2_0" index="0" allow="pedestrian" speed="1.00" length="3.82" width="4.00" shape="513.50,512.80 517.50,512.80 512.80,517.50 512.80,513.50"/>
    </edge>
    <edge id=":juncMain_w3" function="walkingarea">
        <lane id=":juncMain_w3_0" index="0" allow="pedestrian" speed="1.00" length="3.82" width="4.00" shape="512.80,486.50 512.80,482.50 517.50,487.20 513.50,487.20"/>
    </edge>
    <edge id=":juncMain_w4" function="walkingarea">
        <lane id=":juncMain_w4_0" index="0" allow="pedestrian" speed="1.00" length="3.82" width="4.00" shape="486.50,487.20 482.50,487.20 487.20,482.50 487.20,486.50"/>
    </edge>
    <edge id=":juncN_0" function="internal">
        <lane id=":juncN_0_0" index="0" speed="3.65" length="4.67" shape="501.60,1000.00 500.80,1001.20 500.00,1001.60 499.20,1001.20 498.40,1000.00"/>
    </edge>
    <edge id=":juncN_w0" function="walkingarea">
        <lane id=":juncN_w0_0" index="0" allow="pedestrian" speed="1.00" length="28.80" width="3.20" shape="500.00,1000.00 496.80,1000.00 496.80,1000.00 493.60,1000.00 493.60,1000.00 490.40,1000.00 490.40,1000.00 487.20,1000.00 487.20,1000.00 484.00,1000.00 516.00,1000.00 512.80,1000.00 512.80,1000.00 509.60,1000.00 509.60,1000.00 506.40,1000.00 506.40,1000.00 503.20,1000.00 503.20,1000.00 500.00,1000.00"/>
    </edge>
    <edge id=":juncS_0" function="internal">
        <lane id=":juncS_0_0" index="0" speed="3.65" length="4.67" shape="498.40,0.00 499.20,-1.20 500.00,-1.60 500.80,-1.20 501.60,0.00"/>
    </edge>
    <edge id=":juncS_w0" function="walkingarea">
        <lane id=":juncS_w0_0" index="0" allow="pedestrian" speed="1.00" length="28.80" width="3.20" shape="500.00,0.00 503.20,0.00 503.20,0.00 506.40,0.00 506.40,0.00 509.60,0.00 509.60,0.00 512.80,0.00 512.80,0.00 516.00,0.00 484.00,0.00 487.20,0.00 487.20,0.00 490.40,0.00 490.40,0.00 493.60,0.00 493.60,0.00 496.80,0.00 496.80,0.00 500.00,0.00"/>
    </edge>
    <edge id=":juncW_0" function="internal">
        <lane id=":juncW_0_0" index="0" speed="3.65" length="4.67" shape="0.00,501.60 -1.20,500.80 -1.60,500.00 -1.20,499.20 0.00,498.40"/>
    </edge>
    <edge id=":juncW_w0" function="walkingarea">
        <lane id=":juncW_w0_0" index="0" allow="pedestrian" speed="1.00" length="28.80" width="3.20" shape="0.00,500.00 0.00,496.80 0.00,496.80 0.00,493.60 0.00,493.60 0.00,490.40 0.00,490.40 0.00,487.20 0.00,487.20 0.00,484.00 0.00,516.00 0.00,512.80 0.00,512.80 0.00,509.60 0.00,509.60 0.00,506.40 0.00,506.40 0.00,503.20 0.00,503.20 0.00,500.00"/>
    </edge>

    <edge id="edgeE_I" from="juncMain" to="juncE" priority="46">
        <lane id="edgeE_I_0" index="0" allow="pedestrian" speed="11.00" length="482.50" shape="517.50,485.60 1000.00,485.60"/>
        <lane id="edgeE_I_1" index="1" speed="11.00" length="482.50" shape="517.50,488.80 1000.00,488.80"/>
        <lane id="edgeE_I_2" index="2" speed="11.00" length="482.50" shape="517.50,492.00 1000.00,492.00"/>
        <lane id="edgeE_I_3" index="3" speed="11.00" length="482.50" shape="517.50,495.20 1000.00,495.20"/>
        <lane id="edgeE_I_4" index="4" speed="11.00" length="482.50" shape="517.50,498.40 1000.00,498.40"/>
    </edge>
    <edge id="edgeE_O" from="juncE" to="juncMain" priority="78">
        <lane id="edgeE_O_0" index="0" allow="pedestrian" speed="19.00" length="482.50" shape="1000.00,514.40 517.50,514.40"/>
        <lane id="edgeE_O_1" index="1" speed="19.00" length="482.50" shape="1000.00,511.20 517.50,511.20"/>
        <lane id="edgeE_O_2" index="2" speed="19.00" length="482.50" shape="1000.00,508.00 517.50,508.00"/>
        <lane id="edgeE_O_3" index="3" speed="19.00" length="482.50" shape="1000.00,504.80 517.50,504.80"/>
        <lane id="edgeE_O_4" index="4" speed="19.00" length="482.50" shape="1000.00,501.60 517.50,501.60"/>
    </edge>
    <edge id="edgeN_I" from="juncMain" to="juncN" priority="46">
        <lane id="edgeN_I_0" index="0" allow="pedestrian" speed="11.00" length="482.50" shape="514.40,517.50 514.40,1000.00"/>
        <lane id="edgeN_I_1" index="1" speed="11.00" length="482.50" shape="511.20,517.50 511.20,1000.00"/>
        <lane id="edgeN_I_2" index="2" speed="11.00" length="482.50" shape="508.00,517.50 508.00,1000.00"/>
        <lane id="edgeN_I_3" index="3" speed="11.00" length="482.50" shape="504.80,517.50 504.80,1000.00"/>
        <lane id="edgeN_I_4" index="4" speed="11.00" length="482.50" shape="501.60,517.50 501.60,1000.00"/>
    </edge>
    <edge id="edgeN_O" from="juncN" to="juncMain" priority="78">
        <lane id="edgeN_O_0" index="0" allow="pedestrian" speed="19.00" length="482.50" shape="485.60,1000.00 485.60,517.50"/>
        <lane id="edgeN_O_1" index="1" speed="19.00" length="482.50" shape="488.80,1000.00 488.80,517.50"/>
        <lane id="edgeN_O_2" index="2" speed="19.00" length="482.50" shape="492.00,1000.00 492.00,517.50"/>
        <lane id="edgeN_O_3" index="3" speed="19.00" length="482.50" shape="495.20,1000.00 495.20,517.50"/>
        <lane id="edgeN_O_4" index="4" speed="19.00" length="482.50" shape="498.40,1000.00 498.40,517.50"/>
    </edge>
    <edge id="edgeS_I" from="juncMain" to="juncS" priority="46">
        <lane id="edgeS_I_0" index="0" allow="pedestrian" speed="11.00" length="482.50" shape="485.60,482.50 485.60,0.00"/>
        <lane id="edgeS_I_1" index="1" speed="11.00" length="482.50" shape="488.80,482.50 488.80,0.00"/>
        <lane id="edgeS_I_2" index="2" speed="11.00" length="482.50" shape="492.00,482.50 492.00,0.00"/>
        <lane id="edgeS_I_3" index="3" speed="11.00" length="482.50" shape="495.20,482.50 495.20,0.00"/>
        <lane id="edgeS_I_4" index="4" speed="11.00" length="482.50" shape="498.40,482.50 498.40,0.00"/>
    </edge>
    <edge id="edgeS_O" from="juncS" to="juncMain" priority="78">
        <lane id="edgeS_O_0" index="0" allow="pedestrian" speed="19.00" length="482.50" shape="514.40,0.00 514.40,482.50"/>
        <lane id="edgeS_O_1" index="1" speed="19.00" length="482.50" shape="511.20,0.00 511.20,482.50"/>
        <lane id="edgeS_O_2" index="2" speed="19.00" length="482.50" shape="508.00,0.00 508.00,482.50"/>
        <lane id="edgeS_O_3" index="3" speed="19.00" length="482.50" shape="504.80,0.00 504.80,482.50"/>
        <lane id="edgeS_O_4" index="4" speed="19.00" length="482.50" shape="501.60,0.00 501.60,482.50"/>
    </edge>
    <edge id="edgeW_I" from="juncMain" to="juncW" priority="46">
        <lane id="edgeW_I_0" index="0" allow="pedestrian" speed="11.00" length="482.50" shape="482.50,514.40 0.00,514.40"/>
        <lane id="edgeW_I_1" index="1" speed="11.00" length="482.50" shape="482.50,511.20 0.00,511.20"/>
        <lane id="edgeW_I_2" index="2" speed="11.00" length="482.50" shape="482.50,508.00 0.00,508.00"/>
        <lane id="edgeW_I_3" index="3" speed="11.00" length="482.50" shape="482.50,504.80 0.00,504.80"/>
        <lane id="edgeW_I_4" index="4" speed="11.00" length="482.50" shape="482.50,501.60 0.00,501.60"/>
    </edge>
    <edge id="edgeW_O" from="juncW" to="juncMain" priority="78">
        <lane id="edgeW_O_0" index="0" allow="pedestrian" speed="19.00" length="482.50" shape="0.00,485.60 482.50,485.60"/>
        <lane id="edgeW_O_1" index="1" speed="19.00" length="482.50" shape="0.00,488.80 482.50,488.80"/>
        <lane id="edgeW_O_2" index="2" speed="19.00" length="482.50" shape="0.00,492.00 482.50,492.00"/>
        <lane id="edgeW_O_3" index="3" speed="19.00" length="482.50" shape="0.00,495.20 482.50,495.20"/>
        <lane id="edgeW_O_4" index="4" speed="19.00" length="482.50" shape="0.00,498.40 482.50,498.40"/>
    </edge>

    <tlLogic id="juncMain" type="static" programID="0" offset="0">
        <phase duration="26" state="ggGGGgggggrrrrrrrrrrggGGGgggggrrrrrrrrrrrGrG"/>
        <phase duration="5"  state="ggGGGgggggrrrrrrrrrrggGGGgggggrrrrrrrrrrrrrr"/>
        <phase duration="4"  state="yyyyyyygggrrrrrrrrrryyyyyyygggrrrrrrrrrrrrrr"/>
        <phase duration="6"  state="rrrrrrrGGGrrrrrrrrrrrrrrrrrGGGrrrrrrrrrrrrrr"/>
        <phase duration="4"  state="rrrrrrryyyrrrrrrrrrrrrrrrrryyyrrrrrrrrrrrrrr"/>
        <phase duration="26" state="rrrrrrrrrrggGGGgggggrrrrrrrrrrggGGGgggggGrGr"/>
        <phase duration="5"  state="rrrrrrrrrrggGGGgggggrrrrrrrrrrggGGGgggggrrrr"/>
        <phase duration="4"  state="rrrrrrrrrryyyyyyygggrrrrrrrrrryyyyyyygggrrrr"/>
        <phase duration="6"  state="rrrrrrrrrrrrrrrrrGGGrrrrrrrrrrrrrrrrrGGGrrrr"/>
        <phase duration="4"  state="rrrrrrrrrrrrrrrrryyyrrrrrrrrrrrrrrrrryyyrrrr"/>
    </tlLogic>

    <junction id="juncE" type="priority" x="1000.00" y="500.00" incLanes="edgeE_I_0 edgeE_I_1 edgeE_I_2 edgeE_I_3 edgeE_I_4" intLanes=":juncE_0_0" shape="1000.00,500.00 1000.00,484.00 1000.00,500.00">
        <request index="0" response="0" foes="0" cont="0"/>
    </junction>
    <junction id="juncMain" type="traffic_light" x="500.00" y="500.00" incLanes="edgeN_O_0 edgeN_O_1 edgeN_O_2 edgeN_O_3 edgeN_O_4 edgeE_O_0 edgeE_O_1 edgeE_O_2 edgeE_O_3 edgeE_O_4 edgeS_O_0 edgeS_O_1 edgeS_O_2 edgeS_O_3 edgeS_O_4 edgeW_O_0 edgeW_O_1 edgeW_O_2 edgeW_O_3 edgeW_O_4 :juncMain_w2_0 :juncMain_w3_0 :juncMain_w4_0 :juncMain_w1_0" intLanes=":juncMain_40_0 :juncMain_41_0 :juncMain_2_0 :juncMain_2_1 :juncMain_2_2 :juncMain_42_0 :juncMain_43_0 :juncMain_44_0 :juncMain_45_0 :juncMain_46_0 :juncMain_47_0 :juncMain_48_0 :juncMain_12_0 :juncMain_12_1 :juncMain_12_2 :juncMain_49_0 :juncMain_50_0 :juncMain_51_0 :juncMain_52_0 :juncMain_53_0 :juncMain_54_0 :juncMain_55_0 :juncMain_22_0 :juncMain_22_1 :juncMain_22_2 :juncMain_56_0 :juncMain_57_0 :juncMain_58_0 :juncMain_59_0 :juncMain_60_0 :juncMain_61_0 :juncMain_62_0 :juncMain_32_0 :juncMain_32_1 :juncMain_32_2 :juncMain_63_0 :juncMain_64_0 :juncMain_65_0 :juncMain_66_0 :juncMain_67_0 :juncMain_c0_0 :juncMain_c1_0 :juncMain_c2_0 :juncMain_c3_0" shape="484.00,517.50 516.00,517.50 516.17,516.67 516.38,516.38 516.67,516.17 517.04,516.04 517.50,516.00 517.50,484.00 516.67,483.83 516.38,483.62 516.17,483.33 516.04,482.96 516.00,482.50 484.00,482.50 483.83,483.33 483.62,483.62 483.33,483.83 482.96,483.96 482.50,484.00 482.50,516.00 483.33,516.17 483.62,516.38 483.83,516.67 483.96,517.04">
        <request index="0"  response="10010000000000000000000000000000000000000000" foes="10010000000000000000000000000111000000000000" cont="1"/>
        <request index="1"  response="10010000000000000000000000000000000000000000" foes="10010000000000000000000000000111000000000000" cont="1"/>
        <request index="2"  response="01010111100011000000000001111000000000000000" foes="01010111111111011110000001111111000000000000" cont="0"/>
        <request index="3"  response="01010111100011000000000001111000000000000000" foes="01010111111111011110000001111111000000000000" cont="0"/>
        <request index="4"  response="01010111100011000000000001111000000000000000" foes="01010111111111011110000001111111000000000000" cont="0"/>
        <request index="5"  response="00110111100000000001110001111000000010000000" foes="00110111111100000001110011111111000010000000" cont="1"/>
        <request index="6"  response="00110111100000000001110001111000000100000000" foes="00110111111100000001110011111111000100000000" cont="1"/>
        <request index="7"  response="00110111100000000001110001111000000000000000" foes="00110111111100000001110011111111000000100000" cont="1"/>
        <request index="8"  response="00110111100000000001110001111000000000000000" foes="00110111111100000001110011111111000001000000" cont="1"/>
        <request index="9"  response="00010111100000000000000000000000000000000000" foes="00010111100000000000000000000000000000000000" cont="1"/>
        <request index="10" response="00110000000000000001110000000000000000000000" foes="00110000000000000001110000000000000000000000" cont="1"/>
        <request index="11" response="00110000000000000001110000000000000000000000" foes="00110000000000000001110000000000000000000000" cont="1"/>
        <request index="12" response="10100000000000011111110000000000000111111111" foes="10100111100000011111110000000000000111111111" cont="0"/>
        <request index="13" response="10100000000000011111110000000000000111111111" foes="10100111100000011111110000000000000111111111" cont="0"/>
        <request index="14" response="10100000000000011111110000000000000111111111" foes="10100111100000011111110000000000000111111111" cont="0"/>
        <request index="15" response="01100000011100011111110000100000000111111100" foes="01100000011100111111110000100000000111111100" cont="1"/>
        <request index="16" response="01100000011100011111110001000000000111111100" foes="01100000011100111111110001000000000111111100" cont="1"/>
        <request index="17" response="01100000011100011111110000000000000111111100" foes="01100000011100111111110000001000000111111100" cont="1"/>
        <request index="18" response="01100000011100011111110000000000000111111100" foes="01100000011100111111110000010000000111111100" cont="1"/>
        <request index="19" response="00100000000000000000000000000000000111100000" foes="00100000000000000000000000000000000111100000" cont="1"/>
        <request index="20" response="01100000000000000000000000000000000000000000" foes="01100000011100000000000000000000000000000000" cont="1"/>
        <request index="21" response="01100000000000000000000000000000000000000000" foes="01100000011100000000000000000000000000000000" cont="1"/>
        <request index="22" response="01010111100000000000000001111000110000000000" foes="01010111111100000000000001111111110111100000" cont="0"/>
        <request index="23" response="01010111100000000000000001111000110000000000" foes="01010111111100000000000001111111110111100000" cont="0"/>
        <request index="24" response="01010111100000000000000001111000110000000000" foes="01010111111100000000000001111111110111100000" cont="0"/>
        <request index="25" response="11000111100000001000000001111000000000011100" foes="11001111111100001000000001111111000000011100" cont="1"/>
        <request index="26" response="11000111100000010000000001111000000000011100" foes="11001111111100010000000001111111000000011100" cont="1"/>
        <request index="27" response="11000111100000000000000001111000000000011100" foes="11001111111100000010000001111111000000011100" cont="1"/>
        <request index="28" response="11000111100000000000000001111000000000011100" foes="11001111111100000100000001111111000000011100" cont="1"/>