<routes>
   <personFlow id="pRegN" begin="0" end="3000" personsPerHour="830.079913">
        <walk edges="edgeN_O edgeS_I" speed="1.438450"/>
    </personFlow>
   <personFlow id="pRegS" begin="0" end="3000" personsPerHour="911.947806">
        <walk edges="edgeS_O edgeN_I" speed="1.952626"/>
    </personFlow>
   <personFlow id="pRegW" begin="0" end="3000" personsPerHour="716.597922">
        <walk edges="edgeW_O edgeE_I" speed="0.987121"/>
    </personFlow>
   <personFlow id="pRegE" begin="0" end="3000" personsPerHour="860.664928">
        <walk edges="edgeE_O edgeW_I" speed="1.373557"/>
    </personFlow>
   <personFlow id="pOppN" begin="0" end="3000" personsPerHour="682.046657" departPos="500.000000">
        <walk edges="edgeN_I edgeS_O" speed="1.755790"/>
    </personFlow>
   <personFlow id="pOppS" begin="0" end="3000" personsPerHour="479.074421" departPos="1000.000000">
        <walk edges="edgeS_I edgeN_O" speed="1.309419"/>
    </personFlow>
   <personFlow id="pOppW" begin="0" end="3000" personsPerHour="385.369564" departPos="700.000000">
        <walk edges="edgeW_I edgeE_O" speed="1.040650"/>
    </personFlow>
   <personFlow id="pOppE" begin="0" end="3000" personsPerHour="316.022540" departPos="1000.000000">
        <walk edges="edgeE_I edgeW_O" speed="1.434458"/>
    </personFlow>

    <route id="edgeN_edgeN" edges="edgeN_O edgeN_I" />
    <route id="edgeN_edgeS" edges="edgeN_O edgeS_I" />
    <route id="edgeN_edgeW" edges="edgeN_O edgeW_I" />
    <route id="edgeN_edgeE" edges="edgeN_O edgeE_I" />
    <route id="edgeS_edgeN" edges="edgeS_O edgeN_I" />
    <route id="edgeS_edgeS" edges="edgeS_O edgeS_I" />
    <route id="edgeS_edgeW" edges="edgeS_O edgeW_I" />
    <route id="edgeS_edgeE" edges="edgeS_O edgeE_I" />
    <route id="edgeW_edgeN" edges="edgeW_O edgeN_I" />
    <route id="edgeW_edgeS" edges="edgeW_O edgeS_I" />
    <route id="edgeW_edgeW" edges="edgeW_O edgeW_I" />
    <route id="edgeW_edgeE" edges="edgeW_O edgeE_I" />
    <route id="edgeE_edgeN" edges="edgeE_O edgeN_I" />
    <route id="edgeE_edgeS" edges="edgeE_O edgeS_I" />
    <route id="edgeE_edgeW" edges="edgeE_O edgeW_I" />
    <route id="edgeE_edgeE" edges="edgeE_O edgeE_I" />
    
   <vType id="vehicleS_0" length="4.194000" accel="3.255000" decel="5.599000" sigma="0.5" minGap="2.613713" maxSpeed="144.268319" guiShape="passenger" />
   <vehicle id="straightS_0" type="vehicleS_0" route="edgeS_edgeN" depart="0" departLane="5" />

   <vType id="vehicleW_1" length="3.863000" accel="2.572000" decel="5.001000" sigma="0.5" minGap="2.613713" maxSpeed="144.268319" guiShape="passenger" />
   <vehicle id="straightW_1" type="vehicleW_1" route="edgeW_edgeE" depart="0" departLane="2" />

   <vType id="vehicleW_2" length="4.288000" accel="3.431000" decel="5.885000" sigma="0.5" minGap="2.613713" maxSpeed="144.268319" guiShape="passenger" />
   <vehicle id="straightW_2" type="vehicleW_2" route="edgeW_edgeE" depart="1" departLane="2" />

   <vType id="vehicleN_3" length="5.449000" accel="2.727000" decel="3.560000" sigma="0.5" minGap="2.613713" maxSpeed="144.268319" guiShape="passenger" />
   <vehicle id="straightN_3" type="vehicleN_3" route="edgeN_edgeS" depart="2" departLane="1" />

   <vType id="vehicleW_4" length="3.886000" accel="2.889000" decel="3.672000" sigma="0.5" minGap="2.613713" maxSpeed="144.268319" guiShape="passenger" />
   <vehicle id="leftW_4" type="vehicleW_4" route="edgeW_edgeN" depart="2" departLane="5" />

   <vType id="vehicleE_5" length="4.887000" accel="3.452000" decel="4.499000" sigma="0.5" minGap="2.613713" maxSpeed="144.268319" guiShape="passenger" />
   <vehicle id="leftE_5" type="vehicleE_5" route="edgeE_edgeS" depart="2" departLane="4" />

   <vType id="vehicleS_6" length="4.307000" accel="2.388000" decel="4.049000" sigma="0.5" minGap="2.613713" maxSpeed="144.268319" guiShape="passenger" />
   <vehicle id="straightS_6" type="vehicleS_6" route="edgeS_edgeN" depart="3" departLane="1" />

   <vType id="vehicleW_7" length="5.238000" accel="2.498000" decel="4.477000" sigma="0.5" minGap="2.613713" maxSpeed="144.268319" guiShape="passenger" />
   <vehicle id="straightW_7" type="vehicleW_7" route="edgeW_edgeE" depart="3" departLane="4" />

   <vType id="vehicleE_8" length="4.920000" accel="3.087000" decel="3.834000" sigma="0.5" minGap="2.613713" maxSpeed="144.268319" guiShape="passenger" />
   <vehicle id="rightE_8" type="vehicleE_8" route="edgeE_edgeN" depart="3" departLane="1" />

   <vType id="vehicleN_9" length="5.504000" accel="3.128000" decel="5.181000" sigma="0.5" minGap="2.613713" maxSpeed="144.268319" guiShape="passenger" />
   <vehicle id="straightN_9" type="vehicleN_9" route="edgeN_edgeS" depart="4" departLane="3" />

   <vType id="vehicleE_10" length="4.352000" accel="2.636000" decel="3.973000" sigma="0.5" minGap="2.613713" maxSpeed="144.268319" guiShape="passenger" />
   <vehicle id="leftE_10" type="vehicleE_10" route="edgeE_edgeS" depart="4" departLane="5" />

   <vType id="vehicleN_11" length="5.325000" accel="3.132000" decel="3.735000" sigma="0.5" minGap="2.613713" maxSpeed="144.268319" guiShape="passenger" />
   <vehicle id="straightN_11" type="vehicleN_11" route="edgeN_edgeS" depart="5" departLane="2" />

   <vType id="vehicleE_12" length="5.347000" accel="2.810000" decel="4.002000" sigma="0.5" minGap="2.613713" maxSpeed="144.268319" guiShape="passenger" />
   <vehicle id="straightE_12" type="vehicleE_12" route="edgeE_edgeW" depart="5" departLane="2" />

   <vType id="vehicleN_13" length="3.893000" accel="2.428000" decel="5.427000" sigma="0.5" minGap="2.613713" maxSpeed="144.268319" guiShape="passenger" />
   <vehicle id="straightN_13" type="vehicleN_13" route="edgeN_edgeS" depart="6" departLane="4" />

   <vType id="vehicleW_14" length="4.612000" accel="2.615000" decel="5.168000" sigma="0.5" minGap="2.613713" maxSpeed="144.268319" guiShape="passenger" />
   <vehicle id="straightW_14" type="vehicleW_14" route="edgeW_edgeE" depart="6" departLane="2" />

   <vType id="vehicleN_15" length="5.096000" accel="3.298000" decel="4.424000" sigma="0.5" minGap="2.613713" maxSpeed="144.268319" guiShape="passenger" />
   <vehicle id="rightN_15" type="vehicleN_15" route="edgeN_edgeW" depart="7" departLane="1" />

   <vType id="vehicleW_16" length="5.310000" accel="2.631000" decel="4.984000" sigma="0.5" minGap="2.613713" maxSpeed="144.268319" guiShape="passenger" />
   <vehicle id="rightW_16" type="vehicleW_16" route="edgeW_edgeS" depart="7" departLane="1" />

   <vType id="vehicleN_17" length="5.251000" accel="2.953000" decel="3.931000" sigma="0.5" minGap="2.613713" maxSpeed="144.268319" guiShape="passenger" />
   <vehicle id="straightN_17" type="vehicleN_17" route="edgeN_edgeS" depart="8" departLane="3" />

   <vType id="vehicleN_18" length="4.366000" accel="2.309000" decel="6.480000" sigma="0.5" minGap="2.613713" maxSpeed="144.268319" guiShape="passenger" />
   <vehicle id="leftN_18" type="vehicleN_18" route="edgeN_edgeE" depart="9" departLane="6" />

   <vType id="vehicleW_19" length="3.947000" accel="3.249000" decel="6.085000" sigma="0.5" minGap="2.613713" maxSpeed="144.268319" guiShape="passenger" />
   <vehicle id="straightW_19" type="vehicleW_19" route="edgeW_edgeE" depart="9" departLane="4" />

   <vType id="vehicleN_20" length="4.752000" accel="2.633000" decel="6.282000" sigma="0.5" minGap="2.613713" maxSpeed="144.268319" guiShape="passenger" />
   <vehicle id="straightN_20" type="vehicleN_20" route="edgeN_edgeS" depart="10" departLane="4" />

   <vType id="vehicleW_21" length="4.451000" accel="3.471000" decel="4.812000" sigma="0.5" minGap="2.613713" maxSpeed="144.268319" guiShape="passenger" />
   <vehicle id="straightW_21" type="vehicleW_21" route="edgeW_edgeE" depart="11" departLane="2" />

   <vType id="vehicleE_22" length="4.818000" accel="2.587000" decel="4.005000" sigma="0.5" minGap="2.613713" maxSpeed="144.268319" guiShape="passenger" />
   <vehicle id="straightE_22" type="vehicleE_22" route="edgeE_edgeW" depart="11" departLane="2" />

   <vType id="vehicleS_23" length="3.866000" accel="2.719000" decel="5.031000" sigma="0.5" minGap="2.613713" maxSpeed="144.268319" guiShape="passenger" />
   <vehicle id="leftS_23" type="vehicleS_23" route="edgeS_edgeW" depart="12" departLane="6" />

   <vType id="vehicleE_24" length="5.412000" accel="3.037000" decel="4.886000" sigma="0.5" minGap="2.613713" maxSpeed="144.268319" guiShape="passenger" />
   <vehicle id="leftE_24" type="vehicleE_24" route="edgeE_edgeS" depart="12" departLane="5" />

   <vType id="vehicleW_25" length="4.536000" accel="2.900000" decel="5.782000" sigma="0.5" minGap="2.613713" maxSpeed="144.268319" guiShape="passenger" />
   <vehicle id="straightW_25" type="vehicleW_25" route="edgeW_edgeE" depart="13" departLane="4" />

   <vType id="vehicleS_26" length="5.181000" accel="2.427000" decel="3.905000" sigma="0.5" minGap="2.613713" maxSpeed="144.268319" guiShape="passenger" />
   <vehicle id="straightS_26" type="vehicleS_26" route="edgeS_edgeN" depart="14" departLane="5" />

   <vType id="vehicleW_27" length="4.288000" accel="2.613000" decel="6.459000" sigma="0.5" minGap="2.613713" maxSpeed="144.268319" guiShape="passenger" />
   <vehicle id="straightW_27" type="vehicleW_27" route="edgeW_edgeE" depart="14" departLane="3" />

   <vType id="vehicleS_28" length="4.737000" accel="2.302000" decel="3.562000" sigma="0.5" minGap="2.613713" maxSpeed="144.268319" guiShape="passenger" />
   <vehicle id="straightS_28" type="vehicleS_28" route="edgeS_edgeN" depart="15" departLane="2" />

   <vType id="vehicleW_29" length="4.178000" accel="2.812000" decel="3.441000" sigma="0.5" minGap="2.613713" maxSpeed="144.268319" guiShape="passenger" />
   <vehicle id="straightW_29" type="vehicleW_29" route="edgeW_edgeE" depart="15" departLane="3" />

   <vType id="vehicleE_30" length="5.396000" accel="3.320000" decel="4.232000" sigma="0.5" minGap="2.613713" maxSpeed="144.268319" guiShape="passenger" />
   <vehicle id="straightE_30" type="vehicleE_30" route="edgeE_edgeW" depart="15" departLane="4" />

   <vType id="vehicleN_31" length="5.469000" accel="3.048000" decel="5.129000" sigma="0.5" minGap="2.613713" maxSpeed="144.268319" guiShape="passenger" />
   <vehicle id="straightN_31" type="vehicleN_31" route="edgeN_edgeS" depart="17" departLane="3" />

   <vType id="vehicleS_32" length="4.672000" accel="3.409000" decel="3.786000" sigma="0.5" minGap="2.613713" maxSpeed="144.268319" guiShape="passenger" />
   <vehicle id="straightS_32" type="vehicleS_32" route="edgeS_edgeN" depart="17" departLane="5" />

   <vType id="vehicleW_33" length="4.830000" accel="3.174000" decel="4.057000" sigma="0.5" minGap="2.613713" maxSpeed="144.268319" guiShape="passenger" />
   <vehicle id="leftW_33" type="vehicleW_33" route="edgeW_edgeN" depart="17" departLane="4" />

   <vType id="vehicleN_34" length="3.880000" accel="2.391000" decel="5.531000" sigma="0.5" minGap="2.613713" maxSpeed="144.268319" guiShape="passenger" />
   <vehicle id="straightN_34" type="vehicleN_34" route="edgeN_edgeS" depart="18" departLane="5" />

   <vType id="vehicleE_35" length="4.220000" accel="2.805000" decel="5.581000" sigma="0.5" minGap="2.613713" maxSpeed="144.268319" guiShape="passenger" />
   <vehicle id="straightE_35" type="vehicleE_35" route="edgeE_edgeW" depart="18" departLane="3" />

   <vType id="vehicleN_36" length="5.412000" accel="2.295000" decel="5.405000" sigma="0.5" minGap="2.613713" maxSpeed="144.268319" guiShape="passenger" />
   <vehicle id="rightN_36" type="vehicleN_36" route="edgeN_edgeW" depart="19" departLane="1" />

   <vType id="vehicleS_37" length="4.266000" accel="3.515000" decel="6.311000" sigma="0.5" minGap="2.613713" maxSpeed="144.268319" guiShape="passenger" />
   <vehicle id="straightS_37" type="vehicleS_37" route="edgeS_edgeN" depart="19" departLane="2" />

   <vType id="vehicleW_38" length="5.238000" accel="3.212000" decel="5.372000" sigma="0.5" minGap="2.613713" maxSpeed="144.268319" guiShape="passenger" />
   <vehicle id="leftW_38" type="vehicleW_38" route="edgeW_edgeN" depart="19" departLane="4" />

   <vType id="vehicleN_39" length="3.989000" accel="3.442000" decel="4.160000" sigma="0.5" minGap="2.613713" maxSpeed="144.268319" guiShape="passenger" />
   <vehicle id="uturnN_39" type="vehicleN_39" route="edgeN_edgeN" depart="20" departLane="6" />

   <vType id="vehicleE_40" length="4.172000" accel="2.736000" decel="5.636000" sigma="0.5" minGap="2.613713" maxSpeed="144.268319" guiShape="passenger" />
   <vehicle id="leftE_40" type="vehicleE_40" route="edgeE_edgeS" depart="20" departLane="5" />

   <vType id="vehicleN_41" length="5.365000" accel="2.350000" decel="5.451000" sigma="0.5" minGap="2.613713" maxSpeed="144.268319" guiShape="passenger" />
   <vehicle id="straightN_41" type="vehicleN_41" route="edgeN_edgeS" depart="21" departLane="3" />

   <vType id="vehicleS_42" length="4.036000" accel="3.577000" decel="3.800000" sigma="0.5" minGap="2.613713" maxSpeed="144.268319" guiShape="passenger" />
   <vehicle id="straightS_42" type="vehicleS_42" route="edgeS_edgeN" depart="21" departLane="4" />

   <vType id="vehicleE_43" length="3.941000" accel="3.449000" decel="6.392000" sigma="0.5" minGap="2.613713" maxSpeed="144.268319" guiShape="passenger" />
   <vehicle id="leftE_43" type="vehicleE_43" route="edgeE_edgeS" depart="21" departLane="4" />

   <vType id="vehicleW_44" length="4.339000" accel="3.470000" decel="6.016000" sigma="0.5" minGap="2.613713" maxSpeed="144.268319" guiShape="passenger" />
   <vehicle id="leftW_44" type="vehicleW_44" route="edgeW_edgeN" depart="22" departLane="4" />

   <vType id="vehicleN_45" length="3.988000" accel="3.313000" decel="6.323000" sigma="0.5" minGap="2.613713" maxSpeed="144.268319" guiShape="passenger" />
   <vehicle id="straightN_45" type="vehicleN_45" route="edgeN_edgeS" depart="23" departLane="4" />

   <vType id="vehicleN_46" length="5.180000" accel="2.517000" decel="4.676000" sigma="0.5" minGap="2.613713" maxSpeed="144.268319" guiShape="passenger" />
   <vehicle id="straightN_46" type="vehicleN_46" route="edgeN_edgeS" depart="24" departLane="2" />

   <vType id="vehicleW_47" length="5.184000" accel="3.424000" decel="6.067000" sigma="0.5" minGap="2.613713" maxSpeed="144.268319" guiShape="passenger" />
   <vehicle id="rightW_47" type="vehicleW_47" route="edgeW_edgeS" depart="24" departLane="2" />

   <vType id="vehicleE_48" length="4.466000" accel="2.334000" decel="4.880000" sigma="0.5" minGap="2.613713" maxSpeed="144.268319" guiShape="passenger" />
   <vehicle id="straightE_48" type="vehicleE_48" route="edgeE_edgeW" depart="24" departLane="2" />

   <vType id="vehicleW_49" length="4.201000" accel="2.314000" decel="3.911000" sigma="0.5" minGap="2.613713" maxSpeed="144.268319" guiShape="passenger" />
   <vehicle id="straightW_49" type="vehicleW_49" route="edgeW_edgeE" depart="25" departLane="3" />

   <vType id="vehicleE_50" length="5.134000" accel="2.747000" decel="5.015000" sigma="0.5" minGap="2.613713" maxSpeed="144.268319" guiShape="passenger" />
   <vehicle id="leftE_50" type="vehicleE_50" route="edgeE_edgeS" depart="25" departLane="5" />

   <vType id="vehicleS_51" length="4.118000" accel="3.554000" decel="4.163000" sigma="0.5" minGap="2.613713" maxSpeed="144.268319" guiShape="passenger" />
   <vehicle id="uturnS_51" type="vehicleS_51" route="edgeS_edgeS" depart="26" departLane="6" />

   <vType id="vehicleW_52" length="5.058000" accel="2.697000" decel="5.353000" sigma="0.5" minGap="2.613713" maxSpeed="144.268319" guiShape="passenger" />
   <vehicle id="straightW_52" type="vehicleW_52" route="edgeW_edgeE" depart="26" departLane="4" />

   <vType id="vehicleE_53" length="4.137000" accel="2.341000" decel="4.759000" sigma="0.5" minGap="2.613713" maxSpeed="144.268319" guiShape="passenger" />
   <vehicle id="straightE_53" type="vehicleE_53" route="edgeE_edgeW" depart="26" departLane="4" />

   <vType id="vehicleW_54" length="4.377000" accel="2.697000" decel="6.197000" sigma="0.5" minGap="2.613713" maxSpeed="144.268319" guiShape="passenger" />
   <vehicle id="straightW_54" type="vehicleW_54" route="edgeW_edgeE" depart="28" departLane="4" />

   <vType id="vehicleN_55" length="4.370000" accel="3.203000" decel="5.172000" sigma="0.5" minGap="2.613713" maxSpeed="144.268319" guiShape="passenger" />
   <vehicle id="straightN_55" type="vehicleN_55" route="edgeN_edgeS" depart="29" departLane="2" />

   <vType id="vehicleW_56" length="3.813000" accel="2.662000" decel="4.737000" sigma="0.5" minGap="2.613713" maxSpeed="144.268319" guiShape="passenger" />
   <vehicle id="straightW_56" type="vehicleW_56" route="edgeW_edgeE" depart="30" departLane="4" />

   <vType id="vehicleN_57" length="4.967000" accel="2.958000" decel="6.007000" sigma="0.5" minGap="2.613713" maxSpeed="144.268319" guiShape="passenger" />
   <vehicle id="straightN_57" type="vehicleN_57" route="edgeN_edgeS" depart="31" departLane="2" />

   <vType id="vehicleW_58" length="4.871000" accel="2.406000" decel="6.560000" sigma="0.5" minGap="2.613713" maxSpeed="144.268319" guiShape="passenger" />
   <vehicle id="straightW_58" type="vehicleW_58" route="edgeW_edgeE" depart="31" departLane="2" />

   <vType id="vehicleN_59" length="3.854000" accel="2.606000" decel="4.895000" sigma="0.5" minGap="2.613713" maxSpeed="144.268319" guiShape="passenger" />
   <vehicle id="straightN_59" type="vehicleN_59" route="edgeN_edgeS" depart="32" departLane="1" />

   <vType id="vehicleW_60" length="4.988000" accel="3.462000" decel="6.240000" sigma="0.5" minGap="2.613713" maxSpeed="144.268319" guiShape="passenger" />
   <vehicle id="leftW_60" type="vehicleW_60" route="edgeW_edgeN" depart="33" departLane="4" />

   <vType id="vehicleN_61" length="5.002000" accel="2.896000" decel="5.182000" sigma="0.5" minGap="2.613713" maxSpeed="144.268319" guiShape="passenger" />
   <vehicle id="rightN_61" type="vehicleN_61" route="edgeN_edgeW" depart="34" departLane="1" />

   <vType id="vehicleN_62" length="5.084000" accel="2.910000" decel="4.141000" sigma="0.5" minGap="2.613713" maxSpeed="144.268319" guiShape="passenger" />
   <vehicle id="rightN_62" type="vehicleN_62" route="edgeN_edgeW" depart="37" departLane="1" />

   <vType id="vehicleW_63" length="4.641000" accel="2.599000" decel="4.772000" sigma="0.5" minGap="2.613713" maxSpeed="144.268319" guiShape="passenger" />
   <vehicle id="straightW_63" type="vehicleW_63" route="edgeW_edgeE" depart="37" departLane="4" />

   <vType id="vehicleE_64" length="4.359000" accel="2.996000" decel="3.719000" sigma="0.5" minGap="2.613713" maxSpeed="144.268319" guiShape="passenger" />
   <vehicle id="leftE_64" type="vehicleE_64" route="edgeE_edgeS" depart="37" departLane="4" />

   <vType id="vehicleN_65" length="4.178000" accel="2.831000" decel="4.391000" sigma="0.5" minGap="2.613713" maxSpeed="144.268319" guiShape="passenger" />
   <vehicle id="straightN_65" type="vehicleN_65" route="edgeN_edgeS" depart="38" departLane="4" />

   <vType id="vehicleW_66" length="5.359000" accel="3.054000" decel="5.664000" sigma="0.5" minGap="2.613713" maxSpeed="144.268319" guiShape="passenger" />
   <vehicle id="straightW_66" type="vehicleW_66" route="edgeW_edgeE" depart="38" departLane="4" />

   <vType id="vehicleE_67" length="4.414000" accel="3.278000" decel="6.216000" sigma="0.5" minGap="2.613713" maxSpeed="144.268319" guiShape="passenger" />
   <vehicle id="leftE_67" type="vehicleE_67" route="edgeE_edgeS" depart="38" departLane="5" />

   <vType id="vehicleN_68" length="5.180000" accel="3.468000" decel="4.941000" sigma="0.5" minGap="2.613713" maxSpeed="144.268319" guiShape="passenger" />
   <vehicle id="straightN_68" type="vehicleN_68" route="edgeN_edgeS" depart="39" departLane="3" />

   <vType id="vehicleW_69" length="4.973000" accel="2.817000" decel="3.813000" sigma="0.5" minGap="2.613713" maxSpeed="144.268319" guiShape="passenger" />
   <vehicle id="straightW_69" type="vehicleW_69" route="edgeW_edgeE" depart="39" departLane="3" />

   <vType id="vehicleS_70" length="5.294000" accel="2.523000" decel="4.145000" sigma="0.5" minGap="2.613713" maxSpeed="144.268319" guiShape="passenger" />
   <vehicle id="straightS_70" type="vehicleS_70" route="edgeS_edgeN" depart="41" departLane="3" />

   <vType id="vehicleW_71" length="5.114000" accel="2.783000" decel="5.862000" sigma="0.5" minGap="2.613713" maxSpeed="144.268319" guiShape="passenger" />
   <vehicle id="straightW_71" type="vehicleW_71" route="edgeW_edgeE" depart="41" departLane="3" />

   <vType id="vehicleE_72" length="3.845000" accel="2.995000" decel="6.727000" sigma="0.5" minGap="2.613713" maxSpeed="144.268319" guiShape="passenger" />
   <vehicle id="leftE_72" type="vehicleE_72" route="edgeE_edgeS" depart="41" departLane="5" />

   <vType id="vehicleN_73" length="5.449000" accel="2.336000" decel="3.345000" sigma="0.5" minGap="2.613713" maxSpeed="144.268319" guiShape="passenger" />
   <vehicle id="leftN_73" type="vehicleN_73" route="edgeN_edgeE" depart="42" departLane="5" />

   <vType id="vehicleW_74" length="4.028000" accel="3.167000" decel="5.205000" sigma="0.5" minGap="2.613713" maxSpeed="144.268319" guiShape="passenger" />
   <vehicle id="leftW_74" type="vehicleW_74" route="edgeW_edgeN" depart="42" departLane="4" />

   <vType id="vehicleE_75" length="4.443000" accel="3.083000" decel="6.601000" sigma="0.5" minGap="2.613713" maxSpeed="144.268319" guiShape="passenger" />
   <vehicle id="leftE_75" type="vehicleE_75" route="edgeE_edgeS" depart="42" departLane="4" />

   <vType id="vehicleS_76" length="4.802000" accel="3.509000" decel="5.246000" sigma="0.5" minGap="2.613713" maxSpeed="144.268319" guiShape="passenger" />
   <vehicle id="straightS_76" type="vehicleS_76" route="edgeS_edgeN" depart="43" departLane="4" />

   <vType id="vehicleW_77" length="3.942000" accel="3.195000" decel="5.426000" sigma="0.5" minGap="2.613713" maxSpeed="144.268319" guiShape="passenger" />
   <vehicle id="straightW_77" type="vehicleW_77" route="edgeW_edgeE" depart="43" departLane="2" />

   <vType id="vehicleN_78" length="5.190000" accel="3.334000" decel="5.212000" sigma="0.5" minGap="2.613713" maxSpeed="144.268319" guiShape="passenger" />
   <vehicle id="straightN_78" type="vehicleN_78" route="edgeN_edgeS" depart="44" departLane="1" />

   <vType id="vehicleW_79" length="4.677000" accel="2.733000" decel="6.202000" sigma="0.5" minGap="2.613713" maxSpeed="144.268319" guiShape="passenger" />
   <vehicle id="straightW_79" type="vehicleW_79" route="edgeW_edgeE" depart="44" departLane="3" />

   <vType id="vehicleE_80" length="4.899000" accel="3.377000" decel="5.706000" sigma="0.5" minGap="2.613713" maxSpeed="144.268319" guiShape="passenger" />
   <vehicle id="uturnE_80" type="vehicleE_80" route="edgeE_edgeE" depart="44" departLane="5" />

   <vType id="vehicleN_81" length="5.463000" accel="2.639000" decel="6.058000" sigma="0.5" minGap="2.613713" maxSpeed="144.268319" guiShape="passenger" />
   <vehicle id="straightN_81" type="vehicleN_81" route="edgeN_edgeS" depart="45" departLane="5" />

   <vType id="vehicleW_82" length="4.289000" accel="2.878000" decel="5.856000" sigma="0.5" minGap="2.613713" maxSpeed="144.268319" guiShape="passenger" />
   <vehicle id="rightW_82" type="vehicleW_82" route="edgeW_edgeS" depart="46" departLane="2" />

   <vType id="vehicleE_83" length="4.368000" accel="2.927000" decel="4.475000" sigma="0.5" minGap="2.613713" maxSpeed="144.268319" guiShape="passenger" />
   <vehicle id="straightE_83" type="vehicleE_83" route="edgeE_edgeW" depart="46" departLane="3" />

   <vType id="vehicleN_84" length="5.011000" accel="2.648000" decel="3.272000" sigma="0.5" minGap="2.613713" maxSpeed="144.268319" guiShape="passenger" />
   <vehicle id="rightN_84" type="vehicleN_84" route="edgeN_edgeW" depart="47" departLane="1" />

   <vType id="vehicleS_85" length="4.648000" accel="3.284000" decel="5.647000" sigma="0.5" minGap="2.613713" maxSpeed="144.268319" guiShape="passenger" />
   <vehicle id="straightS_85" type="vehicleS_85" route="edgeS_edgeN" depart="47" departLane="4" />

   <vType id="vehicleW_86" length="4.315000" accel="2.817000" decel="4.086000" sigma="0.5" minGap="2.613713" maxSpeed="144.268319" guiShape="passenger" />
   <vehicle id="leftW_86" type="vehicleW_86" route="edgeW_edgeN" depart="47" departLane="5" />

   <vType id="vehicleN_87" length="5.088000" accel="2.720000" decel="5.690000" sigma="0.5" minGap="2.613713" maxSpeed="144.268319" guiShape="passenger" />
   <vehicle id="straightN_87" type="vehicleN_87" route="edgeN_edgeS" depart="48" departLane="3" />

   <vType id="vehicleW_88" length="4.352000" accel="3.264000" decel="6.556000" sigma="0.5" minGap="2.613713" maxSpeed="144.268319" guiShape="passenger" />
   <vehicle id="straightW_88" type="vehicleW_88" route="edgeW_edgeE" depart="48" departLane="4" />

   <vType id="vehicleE_89" length="4.640000" accel="3.240000" decel="6.646000" sigma="0.5" minGap="2.613713" maxSpeed="144.268319" guiShape="passenger" />
   <vehicle id="leftE_89" type="vehicleE_89" route="edgeE_edgeS" depart="48" departLane="5" />

   <vType id="vehicleW_90" length="4.329000" accel="3.218000" decel="3.678000" sigma="0.5" minGap="2.613713" maxSpeed="144.268319" guiShape="passenger" />
   <vehicle id="straightW_90" type="vehicleW_90" route="edgeW_edgeE" depart="49" departLane="2" />

   <vType id="vehicleN_91" length="4.028000" accel="3.430000" decel="4.950000" sigma="0.5" minGap="2.613713" maxSpeed="144.268319" guiShape="passenger" />
   <vehicle id="straightN_91" type="vehicleN_91" route="edgeN_edgeS" depart="50" departLane="1" />

   <vType id="vehicleE_92" length="3.900000" accel="3.525000" decel="4.904000" sigma="0.5" minGap="2.613713" maxSpeed="144.268319" guiShape="passenger" />
   <vehicle id="leftE_92" type="vehicleE_92" route="edgeE_edgeS" depart="50" departLane="4" />

   <vType id="vehicleN_93" length="4.888000" accel="2.354000" decel="3.757000" sigma="0.5" minGap="2.613713" maxSpeed="144.268319" guiShape="passenger" />
   <vehicle id="leftN_93" type="vehicleN_93" route="edgeN_edgeE" depart="51" departLane="6" />

   <vType id="vehicleS_94" length="4.766000" accel="2.832000" decel="5.317000" sigma="0.5" minGap="2.613713" maxSpeed="144.268319" guiShape="passenger" />
   <vehicle id="straightS_94" type="vehicleS_94" route="edgeS_edgeN" depart="51" departLane="5" />

   <vType id="vehicleW_95" length="4.583000" accel="2.867000" decel="6.239000" sigma="0.5" minGap="2.613713" maxSpeed="144.268319" guiShape="passenger" />
   <vehicle id="straightW_95" type="vehicleW_95" route="edgeW_edgeE" depart="51" departLane="3" />

   <vType id="vehicleE_96" length="4.855000" accel="3.260000" decel="6.544000" sigma="0.5" minGap="2.613713" maxSpeed="144.268319" guiShape="passenger" />
   <vehicle id="straightE_96" type="vehicleE_96" route="edgeE_edgeW" depart="51" departLane="2" />

   <vType id="vehicleW_97" length="4.756000" accel="2.490000" decel="4.662000" sigma="0.5" minGap="2.613713" maxSpeed="144.268319" guiShape="passenger" />
   <vehicle id="leftW_97" type="vehicleW_97" route="edgeW_edgeN" depart="52" departLane="5" />

   <vType id="vehicleE_98" length="5.021000" accel="3.211000" decel="4.821000" sigma="0.5" minGap="2.613713" maxSpeed="144.268319" guiShape="passenger" />
   <vehicle id="leftE_98" type="vehicleE_98" route="edgeE_edgeS" depart="52" departLane="4" />

   <vType id="vehicleW_99" length="4.338000" accel="3.272000" decel="5.223000" sigma="0.5" minGap="2.613713" maxSpeed="144.268319" guiShape="passenger" />
   <vehicle id="leftW_99" type="vehicleW_99" route="edgeW_edgeN" depart="55" departLane="5" />

   <vType id="vehicleE_100" length="4.332000" accel="2.814000" decel="4.187000" sigma="0.5" minGap="2.613713" maxSpeed="144.268319" guiShape="passenger" />
   <vehicle id="straightE_100" type="vehicleE_100" route="edgeE_edgeW" depart="55" departLane="4" />

   <vType id="vehicleN_101" length="3.880000" accel="2.853000" decel="4.362000" sigma="0.5" minGap="2.613713" maxSpeed="144.268319" guiShape="passenger" />
   <vehicle id="leftN_101" type="vehicleN_101" route="edgeN_edgeE" depart="56" departLane="6" />

   <vType id="vehicleS_102" length="4.965000" accel="3.419000" decel="5.286000" sigma="0.5" minGap="2.613713" maxSpeed="144.268319" guiShape="passenger" />
   <vehicle id="straightS_102" type="vehicleS_102" route="edgeS_edgeN" depart="56" departLane="1" />

   <vType id="vehicleN_103" length="5.105000" accel="2.904000" decel="5.511000" sigma="0.5" minGap="2.613713" maxSpeed="144.268319" guiShape="passenger" />
   <vehicle id="leftN_103" type="vehicleN_103" route="edgeN_edgeE" depart="57" departLane="6" />

   <vType id="vehicleS_104" length="4.898000" accel="2.932000" decel="3.555000" sigma="0.5" minGap="2.613713" maxSpeed="144.268319" guiShape="passenger" />
   <vehicle id="straightS_104" type="vehicleS_104" route="edgeS_edgeN" depart="57" departLane="3" />

   <vType id="vehicleW_105" length="3.991000" accel="2.495000" decel="4.673000" sigma="0.5" minGap="2.613713" maxSpeed="144.268319" guiShape="passenger" />
   <vehicle id="straightW_105" type="vehicleW_105" route="edgeW_edgeE" depart="57" departLane="3" />

   <vType id="vehicleE_106" length="5.203000" accel="3.009000" decel="4.824000" sigma="0.5" minGap="2.613713" maxSpeed="144.268319" guiShape="passenger" />
   <vehicle id="rightE_106" type="vehicleE_106" route="edgeE_edgeN" depart="57" departLane="2" />

   <vType id="vehicleN_107" length="5.133000" accel="3.425000" decel="6.116000" sigma="0.5" minGap="2.613713" maxSpeed="144.268319" guiShape="passenger" />
   <vehicle id="straightN_107" type="vehicleN_107" route="edgeN_edgeS" depart="58" departLane="1" />

   <vType id="vehicleE_108" length="4.431000" accel="3.282000" decel="5.420000" sigma="0.5" minGap="2.613713" maxSpeed="144.268319" guiShape="passenger" />
   <vehicle id="leftE_108" type="vehicleE_108" route="edgeE_edgeS" depart="58" departLane="4" />

   <vType id="vehicleN_109" length="5.398000" accel="2.861000" decel="5.674000" sigma="0.5" minGap="2.613713" maxSpeed="144.268319" guiShape="passenger" />