<?xml version="1.0" encoding="UTF-8"?>

<!-- generated on 2021-10-23 05:40:05 by Eclipse SUMO netconvert Version 1.10.0
<configuration xmlns:xsi="http://www.w3.org/2001/XMLSchema-instance" xsi:noNamespaceSchemaLocation="http://sumo.dlr.de/xsd/netconvertConfiguration.xsd">

    <input>
        <node-files value="data10/cross.nod.xml"/>
        <edge-files value="data10/cross.edg.xml"/>
        <connection-files value="data10/cross.con.xml"/>
    </input>

    <output>
        <output-file value="data10/cross.net.xml"/>
    </output>

    <junctions>
        <no-turnarounds.except-turnlane value="true"/>
    </junctions>

    <report>
        <aggregate-warnings value="5"/>
    </report>

</configuration>
-->

<net version="1.9" junctionCornerDetail="5" limitTurnSpeed="5.50" xmlns:xsi="http://www.w3.org/2001/XMLSchema-instance" xsi:noNamespaceSchemaLocation="http://sumo.dlr.de/xsd/net_file.xsd">

    <location netOffset="700.00,1000.00" convBoundary="0.00,0.00,1700.00,1500.00" origBoundary="-700.00,-1000.00,1000.00,500.00" projParameter="!"/>

    <edge id=":juncE_0" function="internal">
        <lane id=":juncE_0_0" index="0" disallow="pedestrian" speed="3.65" length="4.67" shape="1700.00,998.40 1701.20,999.20 1701.60,1000.00 1701.20,1000.80 1700.00,1001.60"/>
    </edge>
    <edge id=":juncE_w0" function="walkingarea">
        <lane id=":juncE_w0_0" index="0" allow="pedestrian" speed="1.00" length="35.20" width="3.20" shape="1700.00,1016.00 1700.00,1019.20 1700.00,980.80 1700.00,984.00"/>
    </edge>
    <edge id=":juncMain_0" function="internal">
        <lane id=":juncMain_0_0" index="0" disallow="pedestrian" speed="6.86" length="5.34" shape="682.40,1020.70 682.01,1017.94 680.82,1015.98 680.60,1015.84"/>
        <lane id=":juncMain_0_1" index="1" disallow="pedestrian" speed="7.64" length="7.67" shape="682.40,1020.70 682.01,1016.54 680.82,1013.58 680.60,1013.37"/>
    </edge>
    <edge id=":juncMain_2" function="internal">
        <lane id=":juncMain_2_0" index="0" disallow="pedestrian" speed="22.63" length="41.40" shape="682.40,1020.70 682.40,979.30"/>
        <lane id=":juncMain_2_1" index="1" disallow="pedestrian" speed="22.63" length="41.40" shape="685.60,1020.70 685.60,979.30"/>
        <lane id=":juncMain_2_2" index="2" disallow="pedestrian" speed="22.63" length="41.40" shape="688.80,1020.70 688.80,979.30"/>
        <lane id=":juncMain_2_3" index="3" disallow="pedestrian" speed="22.63" length="41.40" shape="692.00,1020.70 692.00,979.30"/>
        <lane id=":juncMain_2_4" index="4" disallow="pedestrian" speed="22.63" length="41.40" shape="695.20,1020.70 695.20,979.30"/>
    </edge>
    <edge id=":juncMain_7" function="internal">
        <lane id=":juncMain_7_0" index="0" disallow="pedestrian" speed="13.72" length="21.85" shape="695.20,1020.70 696.99,1009.54 702.38,1001.58 703.20,1001.14"/>
        <lane id=":juncMain_7_1" index="1" disallow="pedestrian" speed="13.33" length="19.63" shape="695.20,1020.70 696.99,1010.94 702.38,1003.98 703.20,1003.59"/>
        <lane id=":juncMain_7_2" index="2" disallow="pedestrian" speed="13.31" length="17.50" shape="698.40,1020.70 699.99,1009.54 703.20,1004.20"/>
        <lane id=":juncMain_7_3" index="3" disallow="pedestrian" speed="12.90" length="15.55" shape="698.40,1020.70 699.99,1010.94 703.20,1006.27"/>
    </edge>
    <edge id=":juncMain_11" function="internal">
        <lane id=":juncMain_11_0" index="0" disallow="pedestrian" speed="3.65" length="2.34" shape="698.40,1020.70 699.20,1019.50 700.00,1019.10"/>
    </edge>
    <edge id=":juncMain_44" function="internal">
        <lane id=":juncMain_44_0" index="0" disallow="pedestrian" speed="6.86" length="4.82" shape="680.60,1015.84 678.86,1014.79 676.10,1014.40"/>
    </edge>
    <edge id=":juncMain_45" function="internal">
        <lane id=":juncMain_45_0" index="0" disallow="pedestrian" speed="7.64" length="5.17" shape="680.60,1013.37 678.86,1011.79 676.10,1011.20"/>
    </edge>
    <edge id=":juncMain_46" function="internal">
        <lane id=":juncMain_46_0" index="0" disallow="pedestrian" speed="13.72" length="21.89" shape="703.20,1001.14 711.34,996.79 723.90,995.20"/>
    </edge>
    <edge id=":juncMain_47" function="internal">
        <lane id=":juncMain_47_0" index="0" disallow="pedestrian" speed="13.33" length="21.62" shape="703.20,1003.59 711.34,999.79 723.90,998.40"/>
    </edge>
    <edge id=":juncMain_48" function="internal">
        <lane id=":juncMain_48_0" index="0" disallow="pedestrian" speed="13.31" length="23.62" shape="703.20,1004.20 704.77,1001.58 712.74,996.79 723.90,995.20"/>
    </edge>
    <edge id=":juncMain_49" function="internal">
        <lane id=":juncMain_49_0" index="0" disallow="pedestrian" speed="12.90" length="23.03" shape="703.20,1006.27 704.77,1003.98 712.74,999.79 723.90,998.40"/>
    </edge>
    <edge id=":juncMain_50" function="internal">
        <lane id=":juncMain_50_0" index="0" disallow="pedestrian" speed="3.65" length="2.34" shape="700.00,1019.10 700.80,1019.50 701.60,1020.70"/>
    </edge>
    <edge id=":juncMain_12" function="internal">
        <lane id=":juncMain_12_0" index="0" disallow="pedestrian" speed="6.86" length="5.34" shape="723.90,1014.40 721.14,1014.79 719.17,1015.97 719.04,1016.20"/>
        <lane id=":juncMain_12_1" index="1" disallow="pedestrian" speed="7.64" length="8.30" shape="723.90,1011.20 721.14,1011.79 719.17,1013.58 718.13,1016.20"/>
    </edge>
    <edge id=":juncMain_14" function="internal">
        <lane id=":juncMain_14_0" index="0" disallow="pedestrian" speed="14.59" length="47.80" shape="723.90,1011.20 676.10,1011.20"/>
        <lane id=":juncMain_14_1" index="1" disallow="pedestrian" speed="14.59" length="47.80" shape="723.90,1008.00 676.10,1008.00"/>
        <lane id=":juncMain_14_2" index="2" disallow="pedestrian" speed="14.59" length="47.80" shape="723.90,1004.80 676.10,1004.80"/>
    </edge>
    <edge id=":juncMain_17" function="internal">
        <lane id=":juncMain_17_0" index="0" disallow="pedestrian" speed="13.72" length="24.78" shape="723.90,1004.80 711.34,1003.21 702.38,998.42 701.28,996.80"/>
        <lane id=":juncMain_17_1" index="1" disallow="pedestrian" speed="13.31" length="22.46" shape="723.90,1004.80 712.74,1003.21 704.77,998.42 703.80,996.80"/>
        <lane id=":juncMain_17_2" index="2" disallow="pedestrian" speed="13.33" length="20.69" shape="723.90,1001.60 711.34,1000.21 704.04,996.80"/>
        <lane id=":juncMain_17_3" index="3" disallow="pedestrian" speed="12.90" length="18.57" shape="723.90,1001.60 712.74,1000.21 706.25,996.80"/>
    </edge>
    <edge id=":juncMain_21" function="internal">
        <lane id=":juncMain_21_0" index="0" disallow="pedestrian" speed="3.65" length="2.34" shape="723.90,1001.60 722.70,1000.80 722.30,1000.00"/>
    </edge>
    <edge id=":juncMain_51" function="internal">
        <lane id=":juncMain_51_0" index="0" disallow="pedestrian" speed="6.86" length="4.82" shape="719.04,1016.20 717.99,1017.94 717.60,1020.70"/>
    </edge>
    <edge id=":juncMain_52" function="internal">
        <lane id=":juncMain_52_0" index="0" disallow="pedestrian" speed="7.64" length="4.54" shape="718.13,1016.20 717.99,1016.54 717.60,1020.70"/>
    </edge>
    <edge id=":juncMain_53" function="internal">
        <lane id=":juncMain_53_0" index="0" disallow="pedestrian" speed="13.72" length="18.95" shape="701.28,996.80 696.99,990.46 695.20,979.30"/>
    </edge>
    <edge id=":juncMain_54" function="internal">
        <lane id=":juncMain_54_0" index="0" disallow="pedestrian" speed="13.31" length="18.67" shape="703.80,996.80 699.99,990.46 698.40,979.30"/>
    </edge>
    <edge id=":juncMain_55" function="internal">
        <lane id=":juncMain_55_0" index="0" disallow="pedestrian" speed="13.33" length="20.56" shape="704.04,996.80 702.38,996.03 696.99,989.06 695.20,979.30"/>
    </edge>
    <edge id=":juncMain_56" function="internal">
        <lane id=":juncMain_56_0" index="0" disallow="pedestrian" speed="12.90" length="20.00" shape="706.25,996.80 704.77,996.03 699.99,989.06 698.40,979.30"/>
    </edge>
    <edge id=":juncMain_57" function="internal">
        <lane id=":juncMain_57_0" index="0" disallow="pedestrian" speed="3.65" length="2.34" shape="722.30,1000.00 722.70,999.20 723.90,998.40"/>
    </edge>
    <edge id=":juncMain_22" function="internal">
        <lane id=":juncMain_22_0" index="0" disallow="pedestrian" speed="6.86" length="5.34" shape="717.60,979.30 717.99,982.06 719.18,984.02 719.40,984.16"/>
        <lane id=":juncMain_22_1" index="1" disallow="pedestrian" speed="7.64" length="7.67" shape="717.60,979.30 717.99,983.46 719.18,986.42 719.40,986.63"/>
    </edge>
    <edge id=":juncMain_24" function="internal">
        <lane id=":juncMain_24_0" index="0" disallow="pedestrian" speed="22.63" length="41.40" shape="717.60,979.30 717.60,1020.70"/>
        <lane id=":juncMain_24_1" index="1" disallow="pedestrian" speed="22.63" length="41.40" shape="714.40,979.30 714.40,1020.70"/>
        <lane id=":juncMain_24_2" index="2" disallow="pedestrian" speed="22.63" length="41.40" shape="711.20,979.30 711.20,1020.70"/>
        <lane id=":juncMain_24_3" index="3" disallow="pedestrian" speed="22.63" length="41.40" shape="708.00,979.30 708.00,1020.70"/>
        <lane id=":juncMain_24_4" index="4" disallow="pedestrian" speed="22.63" length="41.40" shape="704.80,979.30 704.80,1020.70"/>
    </edge>
    <edge id=":juncMain_29" function="internal">
        <lane id=":juncMain_29_0" index="0" disallow="pedestrian" speed="13.72" length="21.85" shape="704.80,979.30 703.01,990.46 697.62,998.42 696.80,998.86"/>
        <lane id=":juncMain_29_1" index="1" disallow="pedestrian" speed="13.33" length="19.63" shape="704.80,979.30 703.01,989.06 697.62,996.02 696.80,996.41"/>
        <lane id=":juncMain_29_2" index="2" disallow="pedestrian" speed="13.31" length="17.50" shape="701.60,979.30 700.01,990.46 696.80,995.80"/>
        <lane id=":juncMain_29_3" index="3" disallow="pedestrian" speed="12.90" length="15.55" shape="701.60,979.30 700.01,989.06 696.80,993.73"/>
    </edge>
    <edge id=":juncMain_33" function="internal">
        <lane id=":juncMain_33_0" index="0" disallow="pedestrian" speed="3.65" length="2.34" shape="701.60,979.30 700.80,980.50 700.00,980.90"/>
    </edge>
    <edge id=":juncMain_58" function="internal">
        <lane id=":juncMain_58_0" index="0" disallow="pedestrian" speed="6.86" length="4.82" shape="719.40,984.16 721.14,985.21 723.90,985.60"/>
    </edge>
    <edge id=":juncMain_59" function="internal">
        <lane id=":juncMain_59_0" index="0" disallow="pedestrian" speed="7.64" length="5.17" shape="719.40,986.63 721.14,988.21 723.90,988.80"/>
    </edge>
    <edge id=":juncMain_60" function="internal">
        <lane id=":juncMain_60_0" index="0" disallow="pedestrian" speed="13.72" length="21.89" shape="696.80,998.86 688.66,1003.21 676.10,1004.80"/>
    </edge>
    <edge id=":juncMain_61" function="internal">
        <lane id=":juncMain_61_0" index="0" disallow="pedestrian" speed="13.33" length="21.62" shape="696.80,996.41 688.66,1000.21 676.10,1001.60"/>
    </edge>
    <edge id=":juncMain_62" function="internal">
        <lane id=":juncMain_62_0" index="0" disallow="pedestrian" speed="13.31" length="23.62" shape="696.80,995.80 695.23,998.42 687.26,1003.21 676.10,1004.80"/>
    </edge>
    <edge id=":juncMain_63" function="internal">
        <lane id=":juncMain_63_0" index="0" disallow="pedestrian" speed="12.90" length="23.03" shape="696.80,993.73 695.23,996.02 687.26,1000.21 676.10,1001.60"/>
    </edge>
    <edge id=":juncMain_64" function="internal">
        <lane id=":juncMain_64_0" index="0" disallow="pedestrian" speed="3.65" length="2.34" shape="700.00,980.90 699.20,980.50 698.40,979.30"/>
    </edge>
    <edge id=":juncMain_34" function="internal">
        <lane id=":juncMain_34_0" index="0" disallow="pedestrian" speed="6.86" length="5.34" shape="676.10,985.60 678.86,985.21 680.83,984.03 680.96,983.80"/>
        <lane id=":juncMain_34_1" index="1" disallow="pedestrian" speed="7.64" length="8.30" shape="676.10,988.80 678.86,988.21 680.83,986.42 681.87,983.80"/>
    </edge>
    <edge id=":juncMain_36" function="internal">
        <lane id=":juncMain_36_0" index="0" disallow="pedestrian" speed="14.59" length="47.80" shape="676.10,988.80 723.90,988.80"/>
        <lane id=":juncMain_36_1" index="1" disallow="pedestrian" speed="14.59" length="47.80" shape="676.10,992.00 723.90,992.00"/>
        <lane id=":juncMain_36_2" index="2" disallow="pedestrian" speed="14.59" length="47.80" shape="676.10,995.20 723.90,995.20"/>
    </edge>
    <edge id=":juncMain_39" function="internal">
        <lane id=":juncMain_39_0" index="0" disallow="pedestrian" speed="13.72" length="24.78" shape="676.10,995.20 688.66,996.79 697.62,1001.58 698.72,1003.20"/>
        <lane id=":juncMain_39_1" index="1" disallow="pedestrian" speed="13.31" length="22.46" shape="676.10,995.20 687.26,996.79 695.23,1001.58 696.20,1003.20"/>
        <lane id=":juncMain_39_2" index="2" disallow="pedestrian" speed="13.33" length="20.69" shape="676.10,998.40 688.66,999.79 695.96,1003.20"/>
        <lane id=":juncMain_39_3" index="3" disallow="pedestrian" speed="12.90" length="18.57" shape="676.10,998.40 687.26,999.79 693.75,1003.20"/>
    </edge>
    <edge id=":juncMain_43" function="internal">
        <lane id=":juncMain_43_0" index="0" disallow="pedestrian" speed="3.65" length="2.34" shape="676.10,998.40 677.30,999.20 677.70,1000.00"/>
    </edge>
    <edge id=":juncMain_65" function="internal">
        <lane id=":juncMain_65_0" index="0" disallow="pedestrian" speed="6.86" length="4.82" shape="680.96,983.80 682.01,982.06 682.40,979.30"/>
    </edge>
    <edge id=":juncMain_66" function="internal">
        <lane id=":juncMain_66_0" index="0" disallow="pedestrian" speed="7.64" length="4.54" shape="681.87,983.80 682.01,983.46 682.40,979.30"/>
    </edge>
    <edge id=":juncMain_67" function="internal">
        <lane id=":juncMain_67_0" index="0" disallow="pedestrian" speed="13.72" length="18.95" shape="698.72,1003.20 703.01,1009.54 704.80,1020.70"/>
    </edge>
    <edge id=":juncMain_68" function="internal">
        <lane id=":juncMain_68_0" index="0" disallow="pedestrian" speed="13.31" length="18.67" shape="696.20,1003.20 700.01,1009.54 701.60,1020.70"/>
    </edge>
    <edge id=":juncMain_69" function="internal">
        <lane id=":juncMain_69_0" index="0" disallow="pedestrian" speed="13.33" length="20.56" shape="695.96,1003.20 697.62,1003.97 703.01,1010.94 704.80,1020.70"/>
    </edge>
    <edge id=":juncMain_70" function="internal">
        <lane id=":juncMain_70_0" index="0" disallow="pedestrian" speed="12.90" length="20.00" shape="693.75,1003.20 695.23,1003.97 700.01,1010.94 701.60,1020.70"/>
    </edge>
    <edge id=":juncMain_71" function="internal">
        <lane id=":juncMain_71_0" index="0" disallow="pedestrian" speed="3.65" length="2.34" shape="677.70,1000.00 677.30,1000.80 676.10,1001.60"/>
    </edge>
    <edge id=":juncMain_c0" function="crossing" crossingEdges="edgeN_I edgeN_O">
        <lane id=":juncMain_c0_0" index="0" allow="pedestrian" speed="1.00" length="38.40" width="4.50" shape="719.20,1018.45 680.80,1018.45"/>
    </edge>
    <edge id=":juncMain_c1" function="crossing" crossingEdges="edgeE_I edgeE_O">
        <lane id=":juncMain_c1_0" index="0" allow="pedestrian" speed="1.00" length="32.00" width="4.50" shape="721.65,984.00 721.65,1016.00"/>
    </edge>
    <edge id=":juncMain_c2" function="crossing" crossingEdges="edgeS_I edgeS_O">
        <lane id=":juncMain_c2_0" index="0" allow="pedestrian" speed="1.00" length="38.40" width="4.50" shape="680.80,981.55 719.20,981.55"/>
    </edge>
    <edge id=":juncMain_c3" function="crossing" crossingEdges="edgeW_I edgeW_O">
        <lane id=":juncMain_c3_0" index="0" allow="pedestrian" speed="1.00" length="32.00" width="4.50" shape="678.35,1016.00 678.35,984.00"/>
    </edge>
    <edge id=":juncMain_w0" function="walkingarea">
        <lane id=":juncMain_w0_0" index="0" allow="pedestrian" speed="1.00" length="3.82" width="4.50" shape="676.10,1016.00 676.10,1019.20 677.60,1020.70 680.80,1020.70 680.67,1019.26 680.28,1018.09 679.62,1017.17 678.71,1016.52 677.54,1016.13"/>
    </edge>
    <edge id=":juncMain_w1" function="walkingarea">
        <lane id=":juncMain_w1_0" index="0" allow="pedestrian" speed="1.00" length="3.82" width="4.50" shape="719.20,1020.70 722.40,1020.70 723.90,1019.20 723.90,1016.00 722.46,1016.13 721.29,1016.52 720.38,1017.17 719.72,1018.09 719.33,1019.26"/>
    </edge>
    <edge id=":juncMain_w2" function="walkingarea">
        <lane id=":juncMain_w2_0" index="0" allow="pedestrian" speed="1.00" length="3.82" width="4.50" shape="723.90,984.00 723.90,980.80 722.40,979.30 719.20,979.30 719.33,980.74 719.72,981.91 720.38,982.83 721.29,983.48 722.46,983.87"/>
    </edge>
    <edge id=":juncMain_w3" function="walkingarea">
        <lane id=":juncMain_w3_0" index="0" allow="pedestrian" speed="1.00" length="3.82" width="4.50" shape="680.80,979.30 677.60,979.30 676.10,980.80 676.10,984.00 677.54,983.87 678.71,983.48 679.62,982.83 680.28,981.91 680.67,980.74"/>
    </edge>
    <edge id=":juncN_0" function="internal">
        <lane id=":juncN_0_0" index="0" disallow="pedestrian" speed="3.65" length="4.67" shape="701.60,1500.00 700.80,1501.20 700.00,1501.60 699.20,1501.20 698.40,1500.00"/>
    </edge>
    <edge id=":juncN_w0" function="walkingarea">
        <lane id=":juncN_w0_0" index="0" allow="pedestrian" speed="1.00" length="41.60" width="3.20" shape="680.80,1500.00 677.60,1500.00 722.40,1500.00 719.20,1500.00"/>
    </edge>
    <edge id=":juncS_0" function="internal">
        <lane id=":juncS_0_0" index="0" disallow="pedestrian" speed="3.65" length="4.67" shape="698.40,0.00 699.20,-1.20 700.00,-1.60 700.80,-1.20 701.60,0.00"/>
    </edge>
    <edge id=":juncS_w0" function="walkingarea">
        <lane id=":juncS_w0_0" index="0" allow="pedestrian" speed="1.00" length="41.60" width="3.20" shape="719.20,0.00 722.40,0.00 677.60,0.00 680.80,0.00"/>
    </edge>
    <edge id=":juncW_0" function="internal">
        <lane id=":juncW_0_0" index="0" disallow="pedestrian" speed="3.65" length="4.67" shape="0.00,1001.60 -1.20,1000.80 -1.60,1000.00 -1.20,999.20 0.00,998.40"/>
    </edge>
    <edge id=":juncW_w0" function="walkingarea">
        <lane id=":juncW_w0_0" index="0" allow="pedestrian" speed="1.00" length="35.20" width="3.20" shape="0.00,984.00 0.00,980.80 0.00,1019.20 0.00,1016.00"/>
    </edge>

    <edge id="edgeE_I" from="juncMain" to="juncE" priority="46">
        <lane id="edgeE_I_0" index="0" allow="pedestrian" speed="11.32" length="976.10" shape="723.90,982.40 1700.00,982.40"/>
        <lane id="edgeE_I_1" index="1" disallow="pedestrian" speed="11.32" length="976.10" shape="723.90,985.60 1700.00,985.60"/>
        <lane id="edgeE_I_2" index="2" disallow="pedestrian" speed="11.32" length="976.10" shape="723.90,988.80 1700.00,988.80"/>
        <lane id="edgeE_I_3" index="3" disallow="pedestrian" speed="11.32" length="976.10" shape="723.90,992.00 1700.00,992.00"/>
        <lane id="edgeE_I_4" index="4" disallow="pedestrian" speed="11.32" length="976.10" shape="723.90,995.20 1700.00,995.20"/>
        <lane id="edgeE_I_5" index="5" disallow="pedestrian" speed="11.32" length="976.10" shape="723.90,998.40 1700.00,998.40"/>
    </edge>
    <edge id="edgeE_O" from="juncE" to="juncMain" priority="78">
        <lane id="edgeE_O_0" index="0" allow="pedestrian" speed="17.86" length="976.10" shape="1700.00,1017.60 723.90,1017.60"/>
        <lane id="edgeE_O_1" index="1" disallow="pedestrian" speed="17.86" length="976.10" shape="1700.00,1014.40 723.90,1014.40"/>
        <lane id="edgeE_O_2" index="2" disallow="pedestrian" speed="17.86" length="976.10" shape="1700.00,1011.20 723.90,1011.20"/>
        <lane id="edgeE_O_3" index="3" disallow="pedestrian" speed="17.86" length="976.10" shape="1700.00,1008.00 723.90,1008.00"/>
        <lane id="edgeE_O_4" index="4" disallow="pedestrian" speed="17.86" length="976.10" shape="1700.00,1004.80 723.90,1004.80"/>
        <lane id="edgeE_O_5" index="5" disallow="pedestrian" speed="17.86" length="976.10" shape="1700.00,1001.60 723.90,1001.60"/>
    </edge>
    <edge id="edgeN_I" from="juncMain" to="juncN" priority="46">
        <lane id="edgeN_I_0" index="0" allow="pedestrian" speed="25.79" length="479.30" shape="720.80,1020.70 720.80,1500.00"/>
        <lane id="edgeN_I_1" index="1" disallow="pedestrian" speed="25.79" length="479.30" shape="717.60,1020.70 717.60,1500.00"/>
        <lane id="edgeN_I_2" index="2" disallow="pedestrian" speed="25.79" length="479.30" shape="714.40,1020.70 714.40,1500.00"/>
        <lane id="edgeN_I_3" index="3" disallow="pedestrian" speed="25.79" length="479.30" shape="711.20,1020.70 711.20,1500.00"/>
        <lane id="edgeN_I_4" index="4" disallow="pedestrian" speed="25.79" length="479.30" shape="708.00,1020.70 708.00,1500.00"/>
        <lane id="edgeN_I_5" index="5" disallow="pedestrian" speed="25.79" length="479.30" shape="704.80,1020.70 704.80,1500.00"/>
        <lane id="edgeN_I_6" index="6" disallow="pedestrian" speed="25.79" length="479.30" shape="701.60,1020.70 701.60,1500.00"/>
    </edge>
    <edge id="edgeN_O" from="juncN" to="juncMain" priority="78">
        <lane id="edgeN_O_0" index="0" allow="pedestrian" speed="19.46" length="479.30" shape="679.20,1500.00 679.20,1020.70"/>
        <lane id="edgeN_O_1" index="1" disallow="pedestrian" speed="19.46" length="479.30" shape="682.40,1500.00 682.40,1020.70"/>
        <lane id="edgeN_O_2" index="2" disallow="pedestrian" speed="19.46" length="479.30" shape="685.60,1500.00 685.60,1020.70"/>
        <lane id="edgeN_O_3" index="3" disallow="pedestrian" speed="19.46" length="479.30" shape="688.80,1500.00 688.80,1020.70"/>
        <lane id="edgeN_O_4" index="4" disallow="pedestrian" speed="19.46" length="479.30" shape="692.00,1500.00 692.00,1020.70"/>
        <lane id="edgeN_O_5" index="5" disallow="pedestrian" speed="19.46" length="479.30" shape="695.20,1500.00 695.20,1020.70"/>
        <lane id="edgeN_O_6" index="6" disallow="pedestrian" speed="19.46" length="479.30" shape="698.40,1500.00 698.40,1020.70"/>
    </edge>
    <edge id="edgeS_I" from="juncMain" to="juncS" priority="46">
        <lane id="edgeS_I_0" index="0" allow="pedestrian" speed="25.79" length="979.30" shape="679.20,979.30 679.20,0.00"/>
        <lane id="edgeS_I_1" index="1" disallow="pedestrian" speed="25.79" length="979.30" shape="682.40,979.30 682.40,0.00"/>
        <lane id="edgeS_I_2" index="2" disallow="pedestrian" speed="25.79" length="979.30" shape="685.60,979.30 685.60,0.00"/>
        <lane id="edgeS_I_3" index="3" disallow="pedestrian" speed="25.79" length="979.30" shape="688.80,979.30 688.80,0.00"/>
        <lane id="edgeS_I_4" index="4" disallow="pedestrian" speed="25.79" length="979.30" shape="692.00,979.30 692.00,0.00"/>
        <lane id="edgeS_I_5" index="5" disallow="pedestrian" speed="25.79" length="979.30" shape="695.20,979.30 695.20,0.00"/>
        <lane id="edgeS_I_6" index="6" disallow="pedestrian" speed="25.79" length="979.30" shape="698.40,979.30 698.40,0.00"/>
    </edge>
    <edge id="edgeS_O" from="juncS" to="juncMain" priority="78">
        <lane id="edgeS_O_0" index="0" allow="pedestrian" speed="19.46" length="979.30" shape="720.80,0.00 720.80,979.30"/>
        <lane id="edgeS_O_1" index="1" disallow="pedestrian" speed="19.46" length="979.30" shape="717.60,0.00 717.60,979.30"/>
        <lane id="edgeS_O_2" index="2" disallow="pedestrian" speed="19.46" length="979.30" shape="714.40,0.00 714.40,979.30"/>
        <lane id="edgeS_O_3" index="3" disallow="pedestrian" speed="19.46" length="979.30" shape="711.20,0.00 711.20,979.30"/>
        <lane id="edgeS_O_4" index="4" disallow="pedestrian" speed="19.46" length="979.30" shape="708.00,0.00 708.00,979.30"/>
        <lane id="edgeS_O_5" index="5" disallow="pedestrian" speed="19.46" length="979.30" shape="704.80,0.00 704.80,979.30"/>
        <lane id="edgeS_O_6" index="6" disallow="pedestrian" speed="19.46" length="979.30" shape="701.60,0.00 701.60,979.30"/>
    </edge>
    <edge id="edgeW_I" from="juncMain" to="juncW" priority="46">
        <lane id="edgeW_I_0" index="0" allow="pedestrian" speed="11.32" length="676.10" shape="676.10,1017.60 0.00,1017.60"/>
        <lane id="edgeW_I_1" index="1" disallow="pedestrian" speed="11.32" length="676.10" shape="676.10,1014.40 0.00,1014.40"/>
        <lane id="edgeW_I_2" index="2" disallow="pedestrian" speed="11.32" length="676.10" shape="676.10,1011.20 0.00,1011.20"/>
        <lane id="edgeW_I_3" index="3" disallow="pedestrian" speed="11.32" length="676.10" shape="676.10,1008.00 0.00,1008.00"/>
        <lane id="edgeW_I_4" index="4" disallow="pedestrian" speed="11.32" length="676.10" shape="676.10,1004.80 0.00,1004.80"/>
        <lane id="edgeW_I_5" index="5" disallow="pedestrian" speed="11.32" length="676.10" shape="676.10,1001.60 0.00,1001.60"/>
    </edge>
    <edge id="edgeW_O" from="juncW" to="juncMain" priority="78">
        <lane id="edgeW_O_0" index="0" allow="pedestrian" speed="17.86" length="676.10" shape="0.00,982.40 676.10,982.40"/>
        <lane id="edgeW_O_1" index="1" disallow="pedestrian" speed="17.86" length="676.10" shape="0.00,985.60 676.10,985.60"/>
        <lane id="edgeW_O_2" index="2" disallow="pedestrian" speed="17.86" length="676.10" shape="0.00,988.80 676.10,988.80"/>
        <lane id="edgeW_O_3" index="3" disallow="pedestrian" speed="17.86" length="676.10" shape="0.00,992.00 676.10,992.00"/>
        <lane id="edgeW_O_4" index="4" disallow="pedestrian" speed="17.86" length="676.10" shape="0.00,995.20 676.10,995.20"/>
        <lane id="edgeW_O_5" index="5" disallow="pedestrian" speed="17.86" length="676.10" shape="0.00,998.40 676.10,998.40"/>
    </edge>

    <tlLogic id="juncMain" type="static" programID="0" offset="0">
        <phase duration="24" state="ggGGGGGggrrrrrrrrrrrrrggGGGGGggrrrrrrrrrrrrrrGrG"/>
        <phase duration="5"  state="ggGGGGGggrrrrrrrrrrrrrggGGGGGggrrrrrrrrrrrrrrrrr"/>
        <phase duration="5"  state="yyyyyyyyyrrrrrrrrrrrrryyyyyyyyyrrrrrrrrrrrrrrrrr"/>
        <phase duration="6"  state="rrrrrrrrrGGGrrrrrrrrrrrrrrrrrrrGGGrrrrrrrrrrrrrr"/>
        <phase duration="5"  state="rrrrrrrrryyyrrrrrrrrrrrrrrrrrrryyyrrrrrrrrrrrrrr"/>
        <phase duration="24" state="rrrrrrrrrrrrggGGGgggggrrrrrrrrrrrrggGGGgggggGrGr"/>
        <phase duration="5"  state="rrrrrrrrrrrrggGGGgggggrrrrrrrrrrrrggGGGgggggrrrr"/>
        <phase duration="5"  state="rrrrrrrrrrrryyyyyyygggrrrrrrrrrrrryyyyyyygggrrrr"/>
        <phase duration="6"  state="rrrrrrrrrrrrrrrrrrrGGGrrrrrrrrrrrrrrrrrrrGGGrrrr"/>
        <phase duration="5"  state="rrrrrrrrrrrrrrrrrrryyyrrrrrrrrrrrrrrrrrrryyyrrrr"/>
    </tlLogic>

    <junction id="juncE" type="priority" x="1700.00" y="1000.00" incLanes="edgeE_I_0 edgeE_I_1 edgeE_I_2 edgeE_I_3 edgeE_I_4 edgeE_I_5" intLanes=":juncE_0_0" shape="1700.00,1000.00 1700.00,980.80 1700.00,1000.00">
        <request index="0" response="0" foes="0" cont="0"/>
    </junction>
    <junction id="juncMain" type="traffic_light" x="700.00" y="1000.00" incLanes="edgeN_O_0 edgeN_O_1 edgeN_O_2 edgeN_O_3 edgeN_O_4 edgeN_O_5 edgeN_O_6 edgeE_O_0 edgeE_O_1 edgeE_O_2 edgeE_O_3 edgeE_O_4 edgeE_O_5 edgeS_O_0 edgeS_O_1 edgeS_O_2 edgeS_O_3 edgeS_O_4 edgeS_O_5 edgeS_O_6 edgeW_O_0 edgeW_O_1 edgeW_O_2 edgeW_O_3 edgeW_O_4 edgeW_O_5 :juncMain_w1_0 :juncMain_w2_0 :juncMain_w3_0 :juncMain_w0_0" intLanes=":juncMain_44_0 :juncMain_45_0 :juncMain_2_0 :juncMain_2_1 :juncMain_2_2 :juncMain_2_3 :juncMain_2_4 :juncMain_46_0 :juncMain_47_0 :juncMain_48_0 :juncMain_49_0 :juncMain_50_0 :juncMain_51_0 :juncMain_52_0 :juncMain_14_0 :juncMain_14_1 :juncMain_14_2 :juncMain_53_0 :juncMain_54_0 :juncMain_55_0 :juncMain_56_0 :juncMain_57_0 :juncMain_58_0 :juncMain_59_0 :juncMain_24_0 :juncMain_24_1 :juncMain_24_2 :juncMain_24_3 :juncMain_24_4 :juncMain_60_0 :juncMain_61_0 :juncMain_62_0 :juncMain_63_0 :juncMain_64_0 :juncMain_65_0 :juncMain_66_0 :juncMain_36_0 :juncMain_36_1 :juncMain_36_2 :juncMain_67_0 :juncMain_68_0 :juncMain_69_0 :juncMain_70_0 :juncMain_71_0 :juncMain_c0_0 :juncMain_c1_0 :juncMain_c2_0 :juncMain_c3_0" shape="677.60,1020.70 722.40,1020.70 722.57,1019.87 722.77,1019.58 723.07,1019.37 723.44,1019.24 723.90,1019.20 723.90,980.80 723.07,980.63 722.77,980.42 722.57,980.13 722.44,979.76 722.40,979.30 677.60,979.30 677.43,980.13 677.23,980.42 676.93,980.63 676.56,980.76 676.10,980.80 676.10,1019.20 676.93,1019.37 677.23,1019.58 677.43,1019.87 677.56,1020.24">
        <request index="0"  response="100100000000000000000000000000000000000000000000" foes="100100000000000000000000000000011100000000000000" cont="1"/>
        <request index="1"  response="100100000000000000000000000000000000000000000000" foes="100100000000000000000000000000011100000000000000" cont="1"/>
        <request index="2"  response="010101111000110000000000000111100000000000000000" foes="010101111111110111100000000111111100000000000000" cont="0"/>
        <request index="3"  response="010101111000110000000000000111100000000000000000" foes="010101111111110111100000000111111100000000000000" cont="0"/>
        <request index="4"  response="010101111000110000000000000111100000000000000000" foes="010101111111110111100000000111111100000000000000" cont="0"/>
        <request index="5"  response="010101111000110000000000000111100000000000000000" foes="010101111111110111100000000111111100000000000000" cont="0"/>
        <request index="6"  response="010101111000110000000000000111100000000000000000" foes="010101111111110111100000000111111100000000000000" cont="0"/>
        <request index="7"  response="001101111000000000011111000111100000001000000000" foes="001101111111000000011111001111111100001000000000" cont="1"/>
        <request index="8"  response="001101111000000000011111000111100000010000000000" foes="001101111111000000011111001111111100010000000000" cont="1"/>