<routes>
   <personFlow id="pRegN" begin="0" end="3000" personsPerHour="506.202463">
        <walk edges="edgeN_O edgeS_I" speed="1.530574"/>
    </personFlow>
   <personFlow id="pRegS" begin="0" end="3000" personsPerHour="749.807758">
        <walk edges="edgeS_O edgeN_I" speed="1.268941"/>
    </personFlow>
   <personFlow id="pRegW" begin="0" end="3000" personsPerHour="994.648962">
        <walk edges="edgeW_O edgeE_I" speed="1.484294"/>
    </personFlow>
   <personFlow id="pRegE" begin="0" end="3000" personsPerHour="673.380872">
        <walk edges="edgeE_O edgeW_I" speed="1.058762"/>
    </personFlow>
   <personFlow id="pOppN" begin="0" end="3000" personsPerHour="676.210457" departPos="700.000000">
        <walk edges="edgeN_I edgeS_O" speed="2.002108"/>
    </personFlow>
   <personFlow id="pOppS" begin="0" end="3000" personsPerHour="303.199368" departPos="500.000000">
        <walk edges="edgeS_I edgeN_O" speed="1.200547"/>
    </personFlow>
   <personFlow id="pOppW" begin="0" end="3000" personsPerHour="749.140939" departPos="900.000000">
        <walk edges="edgeW_I edgeE_O" speed="1.773174"/>
    </personFlow>
   <personFlow id="pOppE" begin="0" end="3000" personsPerHour="540.260071" departPos="300.000000">
        <walk edges="edgeE_I edgeW_O" speed="1.712717"/>
    </personFlow>

    <route id="edgeN_edgeN" edges="edgeN_O edgeN_I" />
    <route id="edgeN_edgeS" edges="edgeN_O edgeS_I" />
    <route id="edgeN_edgeW" edges="edgeN_O edgeW_I" />
    <route id="edgeN_edgeE" edges="edgeN_O edgeE_I" />
    <route id="edgeS_edgeN" edges="edgeS_O edgeN_I" />
    <route id="edgeS_edgeS" edges="edgeS_O edgeS_I" />
    <route id="edgeS_edgeW" edges="edgeS_O edgeW_I" />
    <route id="edgeS_edgeE" edges="edgeS_O edgeE_I" />
    <route id="edgeW_edgeN" edges="edgeW_O edgeN_I" />
    <route id="edgeW_edgeS" edges="edgeW_O edgeS_I" />
    <route id="edgeW_edgeW" edges="edgeW_O edgeW_I" />
    <route id="edgeW_edgeE" edges="edgeW_O edgeE_I" />
    <route id="edgeE_edgeN" edges="edgeE_O edgeN_I" />
    <route id="edgeE_edgeS" edges="edgeE_O edgeS_I" />
    <route id="edgeE_edgeW" edges="edgeE_O edgeW_I" />
    <route id="edgeE_edgeE" edges="edgeE_O edgeE_I" />
    
   <vType id="vehicleS_0" length="4.310000" accel="3.353000" decel="5.349000" sigma="0.5" minGap="2.505524" maxSpeed="140.464704" guiShape="passenger" />
   <vehicle id="straightS_0" type="vehicleS_0" route="edgeS_edgeN" depart="0" departLane="2" />

   <vType id="vehicleE_1" length="4.325000" accel="3.123000" decel="4.872000" sigma="0.5" minGap="2.505524" maxSpeed="140.464704" guiShape="passenger" />
   <vehicle id="straightE_1" type="vehicleE_1" route="edgeE_edgeW" depart="0" departLane="4" />

   <vType id="vehicleW_2" length="5.229000" accel="2.108000" decel="5.883000" sigma="0.5" minGap="2.505524" maxSpeed="140.464704" guiShape="passenger" />
   <vehicle id="straightW_2" type="vehicleW_2" route="edgeW_edgeE" depart="1" departLane="4" />

   <vType id="vehicleN_3" length="5.157000" accel="2.271000" decel="4.122000" sigma="0.5" minGap="2.505524" maxSpeed="140.464704" guiShape="passenger" />
   <vehicle id="straightN_3" type="vehicleN_3" route="edgeN_edgeS" depart="2" departLane="4" />

   <vType id="vehicleW_4" length="4.414000" accel="2.233000" decel="3.513000" sigma="0.5" minGap="2.505524" maxSpeed="140.464704" guiShape="passenger" />
   <vehicle id="straightW_4" type="vehicleW_4" route="edgeW_edgeE" depart="5" departLane="2" />

   <vType id="vehicleW_5" length="5.011000" accel="3.293000" decel="5.378000" sigma="0.5" minGap="2.505524" maxSpeed="140.464704" guiShape="passenger" />
   <vehicle id="straightW_5" type="vehicleW_5" route="edgeW_edgeE" depart="6" departLane="2" />

   <vType id="vehicleN_6" length="4.217000" accel="2.744000" decel="6.643000" sigma="0.5" minGap="2.505524" maxSpeed="140.464704" guiShape="passenger" />
   <vehicle id="straightN_6" type="vehicleN_6" route="edgeN_edgeS" depart="7" departLane="3" />

   <vType id="vehicleN_7" length="4.455000" accel="2.553000" decel="3.423000" sigma="0.5" minGap="2.505524" maxSpeed="140.464704" guiShape="passenger" />
   <vehicle id="leftN_7" type="vehicleN_7" route="edgeN_edgeE" depart="8" departLane="6" />

   <vType id="vehicleS_8" length="5.347000" accel="3.193000" decel="3.141000" sigma="0.5" minGap="2.505524" maxSpeed="140.464704" guiShape="passenger" />
   <vehicle id="straightS_8" type="vehicleS_8" route="edgeS_edgeN" depart="8" departLane="3" />

   <vType id="vehicleW_9" length="4.372000" accel="3.094000" decel="6.264000" sigma="0.5" minGap="2.505524" maxSpeed="140.464704" guiShape="passenger" />
   <vehicle id="straightW_9" type="vehicleW_9" route="edgeW_edgeE" depart="8" departLane="3" />

   <vType id="vehicleS_10" length="5.145000" accel="3.565000" decel="3.182000" sigma="0.5" minGap="2.505524" maxSpeed="140.464704" guiShape="passenger" />
   <vehicle id="straightS_10" type="vehicleS_10" route="edgeS_edgeN" depart="9" departLane="3" />

   <vType id="vehicleN_11" length="5.522000" accel="2.999000" decel="6.567000" sigma="0.5" minGap="2.505524" maxSpeed="140.464704" guiShape="passenger" />
   <vehicle id="straightN_11" type="vehicleN_11" route="edgeN_edgeS" depart="10" departLane="2" />

   <vType id="vehicleW_12" length="5.137000" accel="3.407000" decel="3.957000" sigma="0.5" minGap="2.505524" maxSpeed="140.464704" guiShape="passenger" />
   <vehicle id="rightW_12" type="vehicleW_12" route="edgeW_edgeS" depart="10" departLane="1" />

   <vType id="vehicleS_13" length="5.325000" accel="2.606000" decel="5.193000" sigma="0.5" minGap="2.505524" maxSpeed="140.464704" guiShape="passenger" />
   <vehicle id="rightS_13" type="vehicleS_13" route="edgeS_edgeE" depart="12" departLane="1" />

   <vType id="vehicleW_14" length="4.806000" accel="3.424000" decel="4.744000" sigma="0.5" minGap="2.505524" maxSpeed="140.464704" guiShape="passenger" />
   <vehicle id="rightW_14" type="vehicleW_14" route="edgeW_edgeS" depart="12" departLane="1" />

   <vType id="vehicleS_15" length="5.505000" accel="3.472000" decel="3.541000" sigma="0.5" minGap="2.505524" maxSpeed="140.464704" guiShape="passenger" />
   <vehicle id="straightS_15" type="vehicleS_15" route="edgeS_edgeN" depart="13" departLane="3" />

   <vType id="vehicleN_16" length="4.069000" accel="3.394000" decel="5.718000" sigma="0.5" minGap="2.505524" maxSpeed="140.464704" guiShape="passenger" />
   <vehicle id="straightN_16" type="vehicleN_16" route="edgeN_edgeS" depart="14" departLane="3" />

   <vType id="vehicleE_17" length="4.911000" accel="3.741000" decel="6.392000" sigma="0.5" minGap="2.505524" maxSpeed="140.464704" guiShape="passenger" />
   <vehicle id="straightE_17" type="vehicleE_17" route="edgeE_edgeW" depart="14" departLane="4" />

   <vType id="vehicleW_18" length="4.546000" accel="3.631000" decel="4.418000" sigma="0.5" minGap="2.505524" maxSpeed="140.464704" guiShape="passenger" />
   <vehicle id="rightW_18" type="vehicleW_18" route="edgeW_edgeS" depart="15" departLane="1" />

   <vType id="vehicleW_19" length="4.072000" accel="3.173000" decel="3.497000" sigma="0.5" minGap="2.505524" maxSpeed="140.464704" guiShape="passenger" />
   <vehicle id="straightW_19" type="vehicleW_19" route="edgeW_edgeE" depart="16" departLane="2" />

   <vType id="vehicleN_20" length="5.009000" accel="2.462000" decel="3.098000" sigma="0.5" minGap="2.505524" maxSpeed="140.464704" guiShape="passenger" />
   <vehicle id="straightN_20" type="vehicleN_20" route="edgeN_edgeS" depart="17" departLane="5" />

   <vType id="vehicleS_21" length="4.598000" accel="2.258000" decel="5.276000" sigma="0.5" minGap="2.505524" maxSpeed="140.464704" guiShape="passenger" />
   <vehicle id="straightS_21" type="vehicleS_21" route="edgeS_edgeN" depart="17" departLane="4" />

   <vType id="vehicleW_22" length="5.103000" accel="3.245000" decel="6.621000" sigma="0.5" minGap="2.505524" maxSpeed="140.464704" guiShape="passenger" />
   <vehicle id="straightW_22" type="vehicleW_22" route="edgeW_edgeE" depart="17" departLane="2" />

   <vType id="vehicleE_23" length="5.215000" accel="2.283000" decel="3.343000" sigma="0.5" minGap="2.505524" maxSpeed="140.464704" guiShape="passenger" />
   <vehicle id="rightE_23" type="vehicleE_23" route="edgeE_edgeN" depart="17" departLane="1" />

   <vType id="vehicleN_24" length="4.685000" accel="3.588000" decel="2.862000" sigma="0.5" minGap="2.505524" maxSpeed="140.464704" guiShape="passenger" />
   <vehicle id="straightN_24" type="vehicleN_24" route="edgeN_edgeS" depart="18" departLane="2" />

   <vType id="vehicleS_25" length="5.271000" accel="3.749000" decel="6.382000" sigma="0.5" minGap="2.505524" maxSpeed="140.464704" guiShape="passenger" />
   <vehicle id="uturnS_25" type="vehicleS_25" route="edgeS_edgeS" depart="18" departLane="6" />

   <vType id="vehicleE_26" length="4.295000" accel="2.781000" decel="2.793000" sigma="0.5" minGap="2.505524" maxSpeed="140.464704" guiShape="passenger" />
   <vehicle id="straightE_26" type="vehicleE_26" route="edgeE_edgeW" depart="18" departLane="3" />

   <vType id="vehicleN_27" length="5.412000" accel="3.435000" decel="3.730000" sigma="0.5" minGap="2.505524" maxSpeed="140.464704" guiShape="passenger" />
   <vehicle id="straightN_27" type="vehicleN_27" route="edgeN_edgeS" depart="19" departLane="5" />

   <vType id="vehicleS_28" length="5.479000" accel="3.084000" decel="4.793000" sigma="0.5" minGap="2.505524" maxSpeed="140.464704" guiShape="passenger" />
   <vehicle id="straightS_28" type="vehicleS_28" route="edgeS_edgeN" depart="19" departLane="4" />

   <vType id="vehicleW_29" length="4.748000" accel="3.551000" decel="3.201000" sigma="0.5" minGap="2.505524" maxSpeed="140.464704" guiShape="passenger" />
   <vehicle id="straightW_29" type="vehicleW_29" route="edgeW_edgeE" depart="19" departLane="4" />

   <vType id="vehicleE_30" length="4.893000" accel="3.248000" decel="3.523000" sigma="0.5" minGap="2.505524" maxSpeed="140.464704" guiShape="passenger" />
   <vehicle id="straightE_30" type="vehicleE_30" route="edgeE_edgeW" depart="19" departLane="2" />

   <vType id="vehicleE_31" length="4.991000" accel="3.061000" decel="3.859000" sigma="0.5" minGap="2.505524" maxSpeed="140.464704" guiShape="passenger" />
   <vehicle id="straightE_31" type="vehicleE_31" route="edgeE_edgeW" depart="20" departLane="3" />

   <vType id="vehicleN_32" length="4.334000" accel="2.772000" decel="5.329000" sigma="0.5" minGap="2.505524" maxSpeed="140.464704" guiShape="passenger" />
   <vehicle id="straightN_32" type="vehicleN_32" route="edgeN_edgeS" depart="21" departLane="4" />

   <vType id="vehicleN_33" length="4.843000" accel="2.267000" decel="4.774000" sigma="0.5" minGap="2.505524" maxSpeed="140.464704" guiShape="passenger" />
   <vehicle id="straightN_33" type="vehicleN_33" route="edgeN_edgeS" depart="22" departLane="4" />

   <vType id="vehicleS_34" length="4.068000" accel="2.513000" decel="3.729000" sigma="0.5" minGap="2.505524" maxSpeed="140.464704" guiShape="passenger" />
   <vehicle id="straightS_34" type="vehicleS_34" route="edgeS_edgeN" depart="22" departLane="5" />

   <vType id="vehicleE_35" length="4.430000" accel="3.228000" decel="6.434000" sigma="0.5" minGap="2.505524" maxSpeed="140.464704" guiShape="passenger" />
   <vehicle id="rightE_35" type="vehicleE_35" route="edgeE_edgeN" depart="23" departLane="1" />

   <vType id="vehicleN_36" length="5.124000" accel="2.362000" decel="3.716000" sigma="0.5" minGap="2.505524" maxSpeed="140.464704" guiShape="passenger" />
   <vehicle id="rightN_36" type="vehicleN_36" route="edgeN_edgeW" depart="24" departLane="1" />

   <vType id="vehicleW_37" length="4.374000" accel="2.930000" decel="6.295000" sigma="0.5" minGap="2.505524" maxSpeed="140.464704" guiShape="passenger" />
   <vehicle id="straightW_37" type="vehicleW_37" route="edgeW_edgeE" depart="24" departLane="2" />

   <vType id="vehicleE_38" length="4.394000" accel="2.103000" decel="5.740000" sigma="0.5" minGap="2.505524" maxSpeed="140.464704" guiShape="passenger" />
   <vehicle id="straightE_38" type="vehicleE_38" route="edgeE_edgeW" depart="24" departLane="4" />

   <vType id="vehicleS_39" length="5.066000" accel="3.053000" decel="3.013000" sigma="0.5" minGap="2.505524" maxSpeed="140.464704" guiShape="passenger" />
   <vehicle id="straightS_39" type="vehicleS_39" route="edgeS_edgeN" depart="25" departLane="3" />

   <vType id="vehicleW_40" length="4.873000" accel="2.349000" decel="3.077000" sigma="0.5" minGap="2.505524" maxSpeed="140.464704" guiShape="passenger" />
   <vehicle id="rightW_40" type="vehicleW_40" route="edgeW_edgeS" depart="25" departLane="1" />

   <vType id="vehicleW_41" length="5.029000" accel="3.234000" decel="4.013000" sigma="0.5" minGap="2.505524" maxSpeed="140.464704" guiShape="passenger" />
   <vehicle id="straightW_41" type="vehicleW_41" route="edgeW_edgeE" depart="26" departLane="4" />

   <vType id="vehicleW_42" length="5.315000" accel="3.761000" decel="5.904000" sigma="0.5" minGap="2.505524" maxSpeed="140.464704" guiShape="passenger" />
   <vehicle id="rightW_42" type="vehicleW_42" route="edgeW_edgeS" depart="27" departLane="1" />

   <vType id="vehicleE_43" length="4.481000" accel="3.684000" decel="5.869000" sigma="0.5" minGap="2.505524" maxSpeed="140.464704" guiShape="passenger" />
   <vehicle id="rightE_43" type="vehicleE_43" route="edgeE_edgeN" depart="27" departLane="1" />

   <vType id="vehicleN_44" length="4.130000" accel="3.584000" decel="6.102000" sigma="0.5" minGap="2.505524" maxSpeed="140.464704" guiShape="passenger" />
   <vehicle id="rightN_44" type="vehicleN_44" route="edgeN_edgeW" depart="28" departLane="1" />

   <vType id="vehicleS_45" length="4.508000" accel="3.496000" decel="6.154000" sigma="0.5" minGap="2.505524" maxSpeed="140.464704" guiShape="passenger" />
   <vehicle id="rightS_45" type="vehicleS_45" route="edgeS_edgeE" depart="28" departLane="1" />

   <vType id="vehicleW_46" length="4.475000" accel="3.571000" decel="6.550000" sigma="0.5" minGap="2.505524" maxSpeed="140.464704" guiShape="passenger" />
   <vehicle id="straightW_46" type="vehicleW_46" route="edgeW_edgeE" depart="28" departLane="3" />

   <vType id="vehicleN_47" length="4.370000" accel="3.087000" decel="6.618000" sigma="0.5" minGap="2.505524" maxSpeed="140.464704" guiShape="passenger" />
   <vehicle id="rightN_47" type="vehicleN_47" route="edgeN_edgeW" depart="30" departLane="1" />

   <vType id="vehicleS_48" length="5.102000" accel="2.632000" decel="5.058000" sigma="0.5" minGap="2.505524" maxSpeed="140.464704" guiShape="passenger" />
   <vehicle id="straightS_48" type="vehicleS_48" route="edgeS_edgeN" depart="30" departLane="2" />

   <vType id="vehicleW_49" length="4.360000" accel="3.305000" decel="2.557000" sigma="0.5" minGap="2.505524" maxSpeed="140.464704" guiShape="passenger" />
   <vehicle id="straightW_49" type="vehicleW_49" route="edgeW_edgeE" depart="30" departLane="4" />

   <vType id="vehicleW_50" length="5.447000" accel="3.667000" decel="5.128000" sigma="0.5" minGap="2.505524" maxSpeed="140.464704" guiShape="passenger" />
   <vehicle id="straightW_50" type="vehicleW_50" route="edgeW_edgeE" depart="31" departLane="4" />

   <vType id="vehicleS_51" length="4.600000" accel="2.783000" decel="3.773000" sigma="0.5" minGap="2.505524" maxSpeed="140.464704" guiShape="passenger" />
   <vehicle id="straightS_51" type="vehicleS_51" route="edgeS_edgeN" depart="32" departLane="3" />

   <vType id="vehicleW_52" length="4.555000" accel="3.372000" decel="3.270000" sigma="0.5" minGap="2.505524" maxSpeed="140.464704" guiShape="passenger" />
   <vehicle id="straightW_52" type="vehicleW_52" route="edgeW_edgeE" depart="32" departLane="4" />

   <vType id="vehicleS_53" length="4.634000" accel="3.086000" decel="5.258000" sigma="0.5" minGap="2.505524" maxSpeed="140.464704" guiShape="passenger" />
   <vehicle id="straightS_53" type="vehicleS_53" route="edgeS_edgeN" depart="33" departLane="5" />

   <vType id="vehicleW_54" length="4.762000" accel="3.450000" decel="6.520000" sigma="0.5" minGap="2.505524" maxSpeed="140.464704" guiShape="passenger" />
   <vehicle id="rightW_54" type="vehicleW_54" route="edgeW_edgeS" depart="33" departLane="1" />

   <vType id="vehicleE_55" length="4.329000" accel="2.626000" decel="5.886000" sigma="0.5" minGap="2.505524" maxSpeed="140.464704" guiShape="passenger" />
   <vehicle id="rightE_55" type="vehicleE_55" route="edgeE_edgeN" depart="34" departLane="1" />

   <vType id="vehicleN_56" length="4.705000" accel="3.546000" decel="2.851000" sigma="0.5" minGap="2.505524" maxSpeed="140.464704" guiShape="passenger" />
   <vehicle id="straightN_56" type="vehicleN_56" route="edgeN_edgeS" depart="35" departLane="5" />

   <vType id="vehicleW_57" length="4.562000" accel="2.778000" decel="3.161000" sigma="0.5" minGap="2.505524" maxSpeed="140.464704" guiShape="passenger" />
   <vehicle id="rightW_57" type="vehicleW_57" route="edgeW_edgeS" depart="35" departLane="1" />

   <vType id="vehicleW_58" length="5.398000" accel="2.304000" decel="3.102000" sigma="0.5" minGap="2.505524" maxSpeed="140.464704" guiShape="passenger" />
   <vehicle id="straightW_58" type="vehicleW_58" route="edgeW_edgeE" depart="37" departLane="3" />

   <vType id="vehicleW_59" length="4.819000" accel="3.627000" decel="5.626000" sigma="0.5" minGap="2.505524" maxSpeed="140.464704" guiShape="passenger" />
   <vehicle id="rightW_59" type="vehicleW_59" route="edgeW_edgeS" depart="39" departLane="1" />

   <vType id="vehicleW_60" length="4.720000" accel="2.505000" decel="4.370000" sigma="0.5" minGap="2.505524" maxSpeed="140.464704" guiShape="passenger" />
   <vehicle id="rightW_60" type="vehicleW_60" route="edgeW_edgeS" depart="40" departLane="1" />

   <vType id="vehicleW_61" length="4.561000" accel="2.357000" decel="3.435000" sigma="0.5" minGap="2.505524" maxSpeed="140.464704" guiShape="passenger" />
   <vehicle id="straightW_61" type="vehicleW_61" route="edgeW_edgeE" depart="41" departLane="3" />

   <vType id="vehicleS_62" length="4.619000" accel="3.640000" decel="4.966000" sigma="0.5" minGap="2.505524" maxSpeed="140.464704" guiShape="passenger" />
   <vehicle id="straightS_62" type="vehicleS_62" route="edgeS_edgeN" depart="42" departLane="2" />

   <vType id="vehicleS_63" length="5.141000" accel="3.552000" decel="6.494000" sigma="0.5" minGap="2.505524" maxSpeed="140.464704" guiShape="passenger" />
   <vehicle id="straightS_63" type="vehicleS_63" route="edgeS_edgeN" depart="43" departLane="5" />

   <vType id="vehicleW_64" length="5.214000" accel="3.628000" decel="4.570000" sigma="0.5" minGap="2.505524" maxSpeed="140.464704" guiShape="passenger" />
   <vehicle id="rightW_64" type="vehicleW_64" route="edgeW_edgeS" depart="43" departLane="1" />

   <vType id="vehicleN_65" length="5.025000" accel="2.786000" decel="3.233000" sigma="0.5" minGap="2.505524" maxSpeed="140.464704" guiShape="passenger" />
   <vehicle id="straightN_65" type="vehicleN_65" route="edgeN_edgeS" depart="44" departLane="5" />

   <vType id="vehicleE_66" length="5.319000" accel="2.407000" decel="3.626000" sigma="0.5" minGap="2.505524" maxSpeed="140.464704" guiShape="passenger" />
   <vehicle id="straightE_66" type="vehicleE_66" route="edgeE_edgeW" depart="45" departLane="3" />

   <vType id="vehicleN_67" length="5.153000" accel="2.743000" decel="5.661000" sigma="0.5" minGap="2.505524" maxSpeed="140.464704" guiShape="passenger" />
   <vehicle id="straightN_67" type="vehicleN_67" route="edgeN_edgeS" depart="46" departLane="5" />

   <vType id="vehicleS_68" length="3.991000" accel="3.017000" decel="6.686000" sigma="0.5" minGap="2.505524" maxSpeed="140.464704" guiShape="passenger" />
   <vehicle id="straightS_68" type="vehicleS_68" route="edgeS_edgeN" depart="46" departLane="4" />

   <vType id="vehicleW_69" length="5.461000" accel="2.165000" decel="2.679000" sigma="0.5" minGap="2.505524" maxSpeed="140.464704" guiShape="passenger" />
   <vehicle id="straightW_69" type="vehicleW_69" route="edgeW_edgeE" depart="46" departLane="2" />

   <vType id="vehicleE_70" length="4.199000" accel="2.312000" decel="5.319000" sigma="0.5" minGap="2.505524" maxSpeed="140.464704" guiShape="passenger" />
   <vehicle id="straightE_70" type="vehicleE_70" route="edgeE_edgeW" depart="46" departLane="4" />

   <vType id="vehicleW_71" length="4.910000" accel="3.740000" decel="5.522000" sigma="0.5" minGap="2.505524" maxSpeed="140.464704" guiShape="passenger" />
   <vehicle id="straightW_71" type="vehicleW_71" route="edgeW_edgeE" depart="47" departLane="2" />

   <vType id="vehicleN_72" length="4.449000" accel="3.252000" decel="6.514000" sigma="0.5" minGap="2.505524" maxSpeed="140.464704" guiShape="passenger" />
   <vehicle id="leftN_72" type="vehicleN_72" route="edgeN_edgeE" depart="48" departLane="6" />

   <vType id="vehicleW_73" length="5.262000" accel="2.511000" decel="5.434000" sigma="0.5" minGap="2.505524" maxSpeed="140.464704" guiShape="passenger" />
   <vehicle id="straightW_73" type="vehicleW_73" route="edgeW_edgeE" depart="48" departLane="3" />

   <vType id="vehicleS_74" length="5.187000" accel="2.689000" decel="4.322000" sigma="0.5" minGap="2.505524" maxSpeed="140.464704" guiShape="passenger" />
   <vehicle id="uturnS_74" type="vehicleS_74" route="edgeS_edgeS" depart="49" departLane="6" />

   <vType id="vehicleW_75" length="4.495000" accel="3.545000" decel="5.952000" sigma="0.5" minGap="2.505524" maxSpeed="140.464704" guiShape="passenger" />
   <vehicle id="straightW_75" type="vehicleW_75" route="edgeW_edgeE" depart="49" departLane="2" />

   <vType id="vehicleW_76" length="4.236000" accel="2.986000" decel="5.241000" sigma="0.5" minGap="2.505524" maxSpeed="140.464704" guiShape="passenger" />
   <vehicle id="straightW_76" type="vehicleW_76" route="edgeW_edgeE" depart="50" departLane="4" />

   <vType id="vehicleW_77" length="4.381000" accel="3.549000" decel="5.986000" sigma="0.5" minGap="2.505524" maxSpeed="140.464704" guiShape="passenger" />
   <vehicle id="rightW_77" type="vehicleW_77" route="edgeW_edgeS" depart="51" departLane="1" />

   <vType id="vehicleW_78" length="4.488000" accel="2.940000" decel="3.895000" sigma="0.5" minGap="2.505524" maxSpeed="140.464704" guiShape="passenger" />
   <vehicle id="rightW_78" type="vehicleW_78" route="edgeW_edgeS" depart="52" departLane="1" />

   <vType id="vehicleS_79" length="5.059000" accel="2.568000" decel="2.592000" sigma="0.5" minGap="2.505524" maxSpeed="140.464704" guiShape="passenger" />
   <vehicle id="rightS_79" type="vehicleS_79" route="edgeS_edgeE" depart="53" departLane="1" />

   <vType id="vehicleW_80" length="4.726000" accel="3.389000" decel="5.407000" sigma="0.5" minGap="2.505524" maxSpeed="140.464704" guiShape="passenger" />
   <vehicle id="rightW_80" type="vehicleW_80" route="edgeW_edgeS" depart="53" departLane="1" />

   <vType id="vehicleN_81" length="4.594000" accel="2.512000" decel="5.297000" sigma="0.5" minGap="2.505524" maxSpeed="140.464704" guiShape="passenger" />
   <vehicle id="straightN_81" type="vehicleN_81" route="edgeN_edgeS" depart="54" departLane="4" />

   <vType id="vehicleW_82" length="5.129000" accel="2.661000" decel="5.457000" sigma="0.5" minGap="2.505524" maxSpeed="140.464704" guiShape="passenger" />
   <vehicle id="straightW_82" type="vehicleW_82" route="edgeW_edgeE" depart="54" departLane="3" />

   <vType id="vehicleN_83" length="4.455000" accel="3.363000" decel="6.483000" sigma="0.5" minGap="2.505524" maxSpeed="140.464704" guiShape="passenger" />
   <vehicle id="straightN_83" type="vehicleN_83" route="edgeN_edgeS" depart="55" departLane="3" />

   <vType id="vehicleS_84" length="4.394000" accel="3.102000" decel="5.695000" sigma="0.5" minGap="2.505524" maxSpeed="140.464704" guiShape="passenger" />
   <vehicle id="rightS_84" type="vehicleS_84" route="edgeS_edgeE" depart="55" departLane="2" />

   <vType id="vehicleS_85" length="5.070000" accel="2.313000" decel="2.739000" sigma="0.5" minGap="2.505524" maxSpeed="140.464704" guiShape="passenger" />
   <vehicle id="straightS_85" type="vehicleS_85" route="edgeS_edgeN" depart="56" departLane="2" />

   <vType id="vehicleW_86" length="4.158000" accel="3.578000" decel="4.581000" sigma="0.5" minGap="2.505524" maxSpeed="140.464704" guiShape="passenger" />
   <vehicle id="rightW_86" type="vehicleW_86" route="edgeW_edgeS" depart="56" departLane="1" />

   <vType id="vehicleW_87" length="5.435000" accel="2.911000" decel="5.951000" sigma="0.5" minGap="2.505524" maxSpeed="140.464704" guiShape="passenger" />
   <vehicle id="straightW_87" type="vehicleW_87" route="edgeW_edgeE" depart="57" departLane="3" />

   <vType id="vehicleW_88" length="5.448000" accel="2.242000" decel="3.577000" sigma="0.5" minGap="2.505524" maxSpeed="140.464704" guiShape="passenger" />
   <vehicle id="rightW_88" type="vehicleW_88" route="edgeW_edgeS" depart="58" departLane="1" />

   <vType id="vehicleS_89" length="4.666000" accel="2.852000" decel="6.108000" sigma="0.5" minGap="2.505524" maxSpeed="140.464704" guiShape="passenger" />
   <vehicle id="straightS_89" type="vehicleS_89" route="edgeS_edgeN" depart="59" departLane="5" />

   <vType id="vehicleW_90" length="4.916000" accel="3.359000" decel="6.470000" sigma="0.5" minGap="2.505524" maxSpeed="140.464704" guiShape="passenger" />
   <vehicle id="straightW_90" type="vehicleW_90" route="edgeW_edgeE" depart="59" departLane="2" />

   <vType id="vehicleN_91" length="4.336000" accel="3.038000" decel="3.198000" sigma="0.5" minGap="2.505524" maxSpeed="140.464704" guiShape="passenger" />
   <vehicle id="straightN_91" type="vehicleN_91" route="edgeN_edgeS" depart="60" departLane="5" />

   <vType id="vehicleN_92" length="5.062000" accel="2.871000" decel="5.393000" sigma="0.5" minGap="2.505524" maxSpeed="140.464704" guiShape="passenger" />
   <vehicle id="straightN_92" type="vehicleN_92" route="edgeN_edgeS" depart="61" departLane="4" />

   <vType id="vehicleW_93" length="5.384000" accel="3.506000" decel="2.846000" sigma="0.5" minGap="2.505524" maxSpeed="140.464704" guiShape="passenger" />
   <vehicle id="straightW_93" type="vehicleW_93" route="edgeW_edgeE" depart="62" departLane="2" />

   <vType id="vehicleS_94" length="4.387000" accel="3.017000" decel="4.361000" sigma="0.5" minGap="2.505524" maxSpeed="140.464704" guiShape="passenger" />
   <vehicle id="straightS_94" type="vehicleS_94" route="edgeS_edgeN" depart="64" departLane="2" />

   <vType id="vehicleS_95" length="5.017000" accel="3.564000" decel="4.979000" sigma="0.5" minGap="2.505524" maxSpeed="140.464704" guiShape="passenger" />
   <vehicle id="straightS_95" type="vehicleS_95" route="edgeS_edgeN" depart="65" departLane="2" />

   <vType id="vehicleN_96" length="5.146000" accel="2.899000" decel="5.245000" sigma="0.5" minGap="2.505524" maxSpeed="140.464704" guiShape="passenger" />
   <vehicle id="leftN_96" type="vehicleN_96" route="edgeN_edgeE" depart="66" departLane="6" />

   <vType id="vehicleS_97" length="4.955000" accel="2.935000" decel="2.928000" sigma="0.5" minGap="2.505524" maxSpeed="140.464704" guiShape="passenger" />
   <vehicle id="straightS_97" type="vehicleS_97" route="edgeS_edgeN" depart="66" departLane="4" />

   <vType id="vehicleW_98" length="4.124000" accel="2.371000" decel="4.253000" sigma="0.5" minGap="2.505524" maxSpeed="140.464704" guiShape="passenger" />
   <vehicle id="straightW_98" type="vehicleW_98" route="edgeW_edgeE" depart="66" departLane="3" />

   <vType id="vehicleW_99" length="4.453000" accel="2.648000" decel="6.563000" sigma="0.5" minGap="2.505524" maxSpeed="140.464704" guiShape="passenger" />
   <vehicle id="straightW_99" type="vehicleW_99" route="edgeW_edgeE" depart="67" departLane="3" />

   <vType id="vehicleS_100" length="4.684000" accel="2.189000" decel="4.695000" sigma="0.5" minGap="2.505524" maxSpeed="140.464704" guiShape="passenger" />
   <vehicle id="rightS_100" type="vehicleS_100" route="edgeS_edgeE" depart="68" departLane="2" />

   <vType id="vehicleN_101" length="5.414000" accel="2.844000" decel="5.438000" sigma="0.5" minGap="2.505524" maxSpeed="140.464704" guiShape="passenger" />
   <vehicle id="straightN_101" type="vehicleN_101" route="edgeN_edgeS" depart="69" departLane="2" />

   <vType id="vehicleS_102" length="5.213000" accel="3.307000" decel="3.836000" sigma="0.5" minGap="2.505524" maxSpeed="140.464704" guiShape="passenger" />
   <vehicle id="straightS_102" type="vehicleS_102" route="edgeS_edgeN" depart="69" departLane="2" />

   <vType id="vehicleW_103" length="5.515000" accel="3.653000" decel="4.459000" sigma="0.5" minGap="2.505524" maxSpeed="140.464704" guiShape="passenger" />
   <vehicle id="straightW_103" type="vehicleW_103" route="edgeW_edgeE" depart="69" departLane="2" />

   <vType id="vehicleN_104" length="4.418000" accel="3.300000" decel="4.269000" sigma="0.5" minGap="2.505524" maxSpeed="140.464704" guiShape="passenger" />
   <vehicle id="rightN_104" type="vehicleN_104" route="edgeN_edgeW" depart="70" departLane="2" />

   <vType id="vehicleW_105" length="4.562000" accel="3.669000" decel="4.652000" sigma="0.5" minGap="2.505524" maxSpeed="140.464704" guiShape="passenger" />
   <vehicle id="straightW_105" type="vehicleW_105" route="edgeW_edgeE" depart="70" departLane="2" />

   <vType id="vehicleN_106" length="4.611000" accel="3.690000" decel="4.650000" sigma="0.5" minGap="2.505524" maxSpeed="140.464704" guiShape="passenger" />
   <vehicle id="rightN_106" type="vehicleN_106" route="edgeN_edgeW" depart="71" departLane="1" />

   <vType id="vehicleS_107" length="4.880000" accel="3.800000" decel="4.576000" sigma="0.5" minGap="2.505524" maxSpeed="140.464704" guiShape="passenger" />
   <vehicle id="straightS_107" type="vehicleS_107" route="edgeS_edgeN" depart="71" departLane="3" />

   <vType id="vehicleW_108" length="4.481000" accel="3.398000" decel="4.111000" sigma="0.5" minGap="2.505524" maxSpeed="140.464704" guiShape="passenger" />
   <vehicle id="straightW_108" type="vehicleW_108" route="edgeW_edgeE" depart="71" departLane="3" />
