<additional>
   <tlLogic id="juncMain" type="static" programID="1" offset="0">
       <phase duration="16.390950" state="GgGGGGgggrrrrrrrGgGGGGgggrrrrrrrrGrG"/>
       <phase duration="3.081227" state="yyyyyyyyyrrrrrrryyyyyyyyyrrrrrrrrGrG"/>
       <phase duration="9.212883" state="rrrrrrrrrrrrrrrrrrrrrrrrrrrrrrrrrGrG"/>
       <phase duration="28.101582" state="rrrrrrrrrrrrrGGGrrrrrrrrrrrrrGGGrrrr"/>
       <phase duration="51.684471" state="rrrrrrrrrGGGGgggrrrrrrrrrGGGGgggGrGr"/>
       <phase duration="3.991928" state="rrrrrrrrryyyyyyyrrrrrrrrryyyyyyyGrGr"/>
       <phase duration="6.111749" state="rrrrrrrrrrrrrrrrrrrrrrrrrrrrrrrrGrGr"/>
       <phase duration="32.244833" state="rrrrrrrGGrrrrrrrrrrrrrrGGrrrrrrrrrrr"/>
   </tlLogic>
</additional>
