<additional>
   <tlLogic id="juncMain" type="static" programID="1" offset="0">
       <phase duration="23.331689" state="ggGGGGGgggggrrrrrrrrrrggGGGGGgggggrrrrrrrrrrrGrG"/>
       <phase duration="3.601998" state="yyyyyyyyyyyyrrrrrrrrrryyyyyyyyyyyyrrrrrrrrrrrGrG"/>
       <phase duration="12.447499" state="rrrrrrrrrrrrrrrrrrrrrrrrrrrrrrrrrrrrrrrrrrrrrGrG"/>
       <phase duration="20.338388" state="rrrrrrrrrrrrrrrrrrrGGGrrrrrrrrrrrrrrrrrrrGGGrrrr"/>
       <phase duration="52.528492" state="rrrrrrrrrrrrGgGGGgggggrrrrrrrrrrrrGgGGGgggggGrGr"/>
       <phase duration="5.812885" state="rrrrrrrrrrrryyyyyyyyyyrrrrrrrrrrrryyyyyyyyyyGrGr"/>
       <phase duration="6.957036" state="rrrrrrrrrrrrrrrrrrrrrrrrrrrrrrrrrrrrrrrrrrrrGrGr"/>
       <phase duration="19.671317" state="rrrrrrrrrGGGrrrrrrrrrrrrrrrrrrrGGGrrrrrrrrrrrrrr"/>
   </tlLogic>
</additional>
