<?xml version="1.0" encoding="UTF-8"?>

<!-- generated on 2021-10-01 13:28:11 by Eclipse SUMO netedit Version 1.10.0
<configuration xmlns:xsi="http://www.w3.org/2001/XMLSchema-instance" xsi:noNamespaceSchemaLocation="http://sumo.dlr.de/xsd/netconvertConfiguration.xsd">

    <input>
        <sumo-net-file value="C:\Users\24ThomasT\Documents\GitHub\Traffic-Light-Project\network\traffic.net.xml"/>
    </input>

    <output>
        <output-file value="C:\Users\24ThomasT\Documents\GitHub\Traffic-Light-Project\network\traffic.net.xml"/>
    </output>

    <processing>
        <geometry.min-radius.fix.railways value="false"/>
        <geometry.max-grade.fix value="false"/>
        <offset.disable-normalization value="true"/>
        <lefthand value="false"/>
    </processing>

    <junctions>
        <no-turnarounds value="true"/>
        <junctions.corner-detail value="5"/>
        <junctions.limit-turn-speed value="5.5"/>
        <rectangular-lane-cut value="false"/>
    </junctions>

    <pedestrian>
        <walkingareas value="false"/>
    </pedestrian>

    <report>
        <aggregate-warnings value="5"/>
    </report>

</configuration>
-->

<net version="1.9" junctionCornerDetail="5" limitTurnSpeed="5.50" xmlns:xsi="http://www.w3.org/2001/XMLSchema-instance" xsi:noNamespaceSchemaLocation="http://sumo.dlr.de/xsd/net_file.xsd">

    <location netOffset="0.00,0.00" convBoundary="-500.00,-500.00,500.00,500.00" origBoundary="-10000000000.00,-10000000000.00,10000000000.00,10000000000.00" projParameter="!"/>

    <edge id=":juncM_0" function="internal">
        <lane id=":juncM_0_0" index="0" speed="6.51" length="9.03" shape="-1.60,7.20 -1.95,4.75 -3.00,3.00 -4.75,1.95 -7.20,1.60"/>
    </edge>
    <edge id=":juncM_1" function="internal">
        <lane id=":juncM_1_0" index="0" speed="13.89" length="14.40" shape="-1.60,7.20 -1.60,-7.20"/>
    </edge>
    <edge id=":juncM_2" function="internal">
        <lane id=":juncM_2_0" index="0" speed="8.00" length="5.93" shape="-1.60,7.20 -1.05,3.35 0.00,1.60"/>
    </edge>
    <edge id=":juncM_12" function="internal">
        <lane id=":juncM_12_0" index="0" speed="8.00" length="8.26" shape="0.00,1.60 0.60,0.60 3.35,-1.05 7.20,-1.60"/>
    </edge>
    <edge id=":juncM_3" function="internal">
        <lane id=":juncM_3_0" index="0" speed="6.51" length="9.03" shape="7.20,1.60 4.75,1.95 3.00,3.00 1.95,4.75 1.60,7.20"/>
    </edge>
    <edge id=":juncM_4" function="internal">
        <lane id=":juncM_4_0" index="0" speed="13.89" length="14.40" shape="7.20,1.60 -7.20,1.60"/>
    </edge>
    <edge id=":juncM_5" function="internal">
        <lane id=":juncM_5_0" index="0" speed="8.00" length="14.19" shape="7.20,1.60 3.35,1.05 0.60,-0.60 -1.05,-3.35 -1.60,-7.20"/>
    </edge>
    <edge id=":juncM_6" function="internal">
        <lane id=":juncM_6_0" index="0" speed="6.51" length="9.03" shape="1.60,-7.20 1.95,-4.75 3.00,-3.00 4.75,-1.95 7.20,-1.60"/>
    </edge>
    <edge id=":juncM_7" function="internal">
        <lane id=":juncM_7_0" index="0" speed="13.89" length="14.40" shape="1.60,-7.20 1.60,7.20"/>
    </edge>
    <edge id=":juncM_8" function="internal">
        <lane id=":juncM_8_0" index="0" speed="8.00" length="5.93" shape="1.60,-7.20 1.05,-3.35 0.00,-1.60"/>
    </edge>
    <edge id=":juncM_13" function="internal">
        <lane id=":juncM_13_0" index="0" speed="8.00" length="8.26" shape="0.00,-1.60 -0.60,-0.60 -3.35,1.05 -7.20,1.60"/>
    </edge>
    <edge id=":juncM_9" function="internal">
        <lane id=":juncM_9_0" index="0" speed="6.51" length="9.03" shape="-7.20,-1.60 -4.75,-1.95 -3.00,-3.00 -1.95,-4.75 -1.60,-7.20"/>
    </edge>
    <edge id=":juncM_10" function="internal">
        <lane id=":juncM_10_0" index="0" speed="13.89" length="14.40" shape="-7.20,-1.60 7.20,-1.60"/>
    </edge>
    <edge id=":juncM_11" function="internal">
        <lane id=":juncM_11_0" index="0" speed="8.00" length="14.19" shape="-7.20,-1.60 -3.35,-1.05 -0.60,0.60 1.05,3.35 1.60,7.20"/>
    </edge>

    <edge id="edgeEL" from="juncM" to="juncE" priority="-1" spreadType="center" length="500.00" shape="0.00,-1.60 500.00,-1.60">
        <lane id="edgeEL_0" index="0" speed="13.89" length="500.00" shape="7.20,-1.60 500.00,-1.60"/>
    </edge>
    <edge id="edgeER" from="juncE" to="juncM" priority="-1" spreadType="center" length="500.00" shape="500.00,1.60 0.00,1.60">
        <lane id="edgeER_0" index="0" speed="13.89" length="500.00" shape="500.00,1.60 7.20,1.60"/>
    </edge>
    <edge id="edgeNL" from="juncM" to="juncN" priority="-1" spreadType="center" length="500.00" shape="1.60,0.00 1.60,500.00">
        <lane id="edgeNL_0" index="0" speed="13.89" length="500.00" shape="1.60,7.20 1.60,500.00"/>
    </edge>
    <edge id="edgeNR" from="juncN" to="juncM" priority="-1" spreadType="center" length="500.00" shape="-1.60,500.00 -1.60,0.00">
        <lane id="edgeNR_0" index="0" speed="13.89" length="500.00" shape="-1.60,500.00 -1.60,7.20"/>
    </edge>
    <edge id="edgeSL" from="juncM" to="juncS" priority="-1" spreadType="center" length="500.00" shape="-1.60,0.00 -1.60,-500.00">
        <lane id="edgeSL_0" index="0" speed="13.89" length="500.00" shape="-1.60,-7.20 -1.60,-500.00"/>
    </edge>
    <edge id="edgeSR" from="juncS" to="juncM" priority="-1" spreadType="center" length="500.00" shape="1.60,-500.00 1.60,0.00">
        <lane id="edgeSR_0" index="0" speed="13.89" length="500.00" shape="1.60,-500.00 1.60,-7.20"/>
    </edge>
    <edge id="edgeWL" from="juncM" to="juncW" priority="-1" spreadType="center" length="500.00" shape="0.00,1.60 -500.00,1.60">
        <lane id="edgeWL_0" index="0" speed="13.89" length="500.00" shape="-7.20,1.60 -500.00,1.60"/>
    </edge>
    <edge id="edgeWR" from="juncW" to="juncM" priority="-1" spreadType="center" length="500.00" shape="-500.00,-1.60 0.00,-1.60">
        <lane id="edgeWR_0" index="0" speed="13.89" length="500.00" shape="-500.00,-1.60 -7.20,-1.60"/>
    </edge>

    <junction id="juncE" type="dead_end" x="500.00" y="0.00" incLanes="edgeEL_0" intLanes="" shape="500.00,0.00 500.00,-3.20 500.00,0.00"/>
    <junction id="juncM" type="priority" x="0.00" y="0.00" incLanes="edgeNR_0 edgeER_0 edgeSR_0 edgeWR_0" intLanes=":juncM_0_0 :juncM_1_0 :juncM_12_0 :juncM_3_0 :juncM_4_0 :juncM_5_0 :juncM_6_0 :juncM_7_0 :juncM_13_0 :juncM_9_0 :juncM_10_0 :juncM_11_0" shape="-3.20,7.20 3.20,7.20 3.64,4.98 4.20,4.20 4.98,3.64 5.98,3.31 7.20,3.20 7.20,-3.20 4.98,-3.64 4.20,-4.20 3.64,-4.98 3.31,-5.98 3.20,-7.20 -3.20,-7.20 -3.64,-4.98 -4.20,-4.20 -4.98,-3.64 -5.98,-3.31 -7.20,-3.20 -7.20,3.20 -4.98,3.64 -4.20,4.20 -3.64,4.98 -3.31,5.98">
        <request index="0"  response="000000000000" foes="000100010000" cont="0"/>
        <request index="1"  response="000000000000" foes="111100110000" cont="0"/>
        <request index="2"  response="000011000000" foes="110011110000" cont="1"/>
        <request index="3"  response="000010000000" foes="100010000000" cont="0"/>
        <request index="4"  response="000110000111" foes="100110000111" cont="0"/>
        <request index="5"  response="011110000110" foes="011110000110" cont="0"/>
        <request index="6"  response="000000000000" foes="010000000100" cont="0"/>
        <request index="7"  response="000000000000" foes="110000111100" cont="0"/>
        <request index="8"  response="000000000011" foes="110000110011" cont="1"/>
        <request index="9"  response="000000000010" foes="000000100010" cont="0"/>
        <request index="10" response="000111000110" foes="000111100110" cont="0"/>
        <request index="11" response="000110011110" foes="000110011110" cont="0"/>
    </junction>
    <junction id="juncN" type="dead_end" x="0.00" y="500.00" incLanes="edgeNL_0" intLanes="" shape="0.00,500.00 3.20,500.00 0.00,500.00"/>
    <junction id="juncS" type="dead_end" x="0.00" y="-500.00" incLanes="edgeSL_0" intLanes="" shape="0.00,-500.00 -3.20,-500.00 0.00,-500.00"/>
    <junction id="juncW" type="dead_end" x="-500.00" y="0.00" incLanes="edgeWL_0" intLanes="" shape="-500.00,0.00 -500.00,3.20 -500.00,0.00"/>

    <junction id=":juncM_12_0" type="internal" x="0.00" y="1.60" incLanes=":juncM_2_0 edgeSR_0" intLanes=":juncM_4_0 :juncM_5_0 :juncM_6_0 :juncM_7_0 :juncM_10_0 :juncM_11_0"/>
    <junction id=":juncM_13_0" type="internal" x="0.00" y="-1.60" incLanes=":juncM_8_0 edgeNR_0" intLanes=":juncM_0_0 :juncM_1_0 :juncM_4_0 :juncM_5_0 :juncM_10_0 :juncM_11_0"/>

    <connection from="edgeER" to="edgeNL" fromLane="0" toLane="0" via=":juncM_3_0" dir="r" state="m"/>
    <connection from="edgeER" to="edgeWL" fromLane="0" toLane="0" via=":juncM_4_0" dir="s" state="m"/>
    <connection from="edgeER" to="edgeSL" fromLane="0" toLane="0" via=":juncM_5_0" dir="l" state="m"/>
    <connection from="edgeNR" to="edgeWL" fromLane="0" toLane="0" via=":juncM_0_0" dir="r" state="M"/>
    <connection from="edgeNR" to="edgeSL" fromLane="0" toLane="0" via=":juncM_1_0" dir="s" state="M"/>
    <connection from="edgeNR" to="edgeEL" fromLane="0" toLane="0" via=":juncM_2_0" dir="l" state="m"/>
    <connection from="edgeSR" to="edgeEL" fromLane="0" toLane="0" via=":juncM_6_0" dir="r" state="M"/>
    <connection from="edgeSR" to="edgeNL" fromLane="0" toLane="0" via=":juncM_7_0" dir="s" state="M"/>
    <connection from="edgeSR" to="edgeWL" fromLane="0" toLane="0" via=":juncM_8_0" dir="l" state="m"/>
    <connection from="edgeWR" to="edgeSL" fromLane="0" toLane="0" via=":juncM_9_0" dir="r" state="m"/>
    <connection from="edgeWR" to="edgeEL" fromLane="0" toLane="0" via=":juncM_10_0" dir="s" state="m"/>
    <connection from="edgeWR" to="edgeNL" fromLane="0" toLane="0" via=":juncM_11_0" dir="l" state="m"/>

    <connection from=":juncM_0" to="edgeWL" fromLane="0" toLane="0" dir="r" state="M"/>
    <connection from=":juncM_1" to="edgeSL" fromLane="0" toLane="0" dir="s" state="M"/>
    <connection from=":juncM_2" to="edgeEL" fromLane="0" toLane="0" via=":juncM_12_0" dir="l" state="m"/>
    <connection from=":juncM_12" to="edgeEL" fromLane="0" toLane="0" dir="l" state="M"/>
    <connection from=":juncM_3" to="edgeNL" fromLane="0" toLane="0" dir="r" state="M"/>
    <connection from=":juncM_4" to="edgeWL" fromLane="0" toLane="0" dir="s" state="M"/>
    <connection from=":juncM_5" to="edgeSL" fromLane="0" toLane="0" dir="l" state="M"/>
    <connection from=":juncM_6" to="edgeEL" fromLane="0" toLane="0" dir="r" state="M"/>
    <connection from=":juncM_7" to="edgeNL" fromLane="0" toLane="0" dir="s" state="M"/>
    <connection from=":juncM_8" to="edgeWL" fromLane="0" toLane="0" via=":juncM_13_0" dir="l" state="m"/>
    <connection from=":juncM_13" to="edgeWL" fromLane="0" toLane="0" dir="l" state="M"/>
    <connection from=":juncM_9" to="edgeSL" fromLane="0" toLane="0" dir="r" state="M"/>
    <connection from=":juncM_10" to="edgeEL" fromLane="0" toLane="0" dir="s" state="M"/>
    <connection from=":juncM_11" to="edgeNL" fromLane="0" toLane="0" dir="l" state="M"/>

</net>
