<routes>
   <personFlow id="pRegN" begin="0" end="3000" personsPerHour="875.373986">
        <walk edges="edgeN_O edgeS_I" speed="2.150033"/>
    </personFlow>
   <personFlow id="pRegS" begin="0" end="3000" personsPerHour="734.423793">
        <walk edges="edgeS_O edgeN_I" speed="1.153894"/>
    </personFlow>
   <personFlow id="pRegW" begin="0" end="3000" personsPerHour="89.660006">
        <walk edges="edgeW_O edgeE_I" speed="1.297309"/>
    </personFlow>
   <personFlow id="pRegE" begin="0" end="3000" personsPerHour="481.260481">
        <walk edges="edgeE_O edgeW_I" speed="1.576101"/>
    </personFlow>
   <personFlow id="pOppN" begin="0" end="3000" personsPerHour="276.979250" departPos="400.000000">
        <walk edges="edgeN_I edgeS_O" speed="1.119991"/>
    </personFlow>
   <personFlow id="pOppS" begin="0" end="3000" personsPerHour="992.393055" departPos="400.000000">
        <walk edges="edgeS_I edgeN_O" speed="0.899537"/>
    </personFlow>
   <personFlow id="pOppW" begin="0" end="3000" personsPerHour="1023.832999" departPos="900.000000">
        <walk edges="edgeW_I edgeE_O" speed="1.171566"/>
    </personFlow>
   <personFlow id="pOppE" begin="0" end="3000" personsPerHour="338.165531" departPos="300.000000">
        <walk edges="edgeE_I edgeW_O" speed="2.212727"/>
    </personFlow>

    <route id="edgeN_edgeN" edges="edgeN_O edgeN_I" />
    <route id="edgeN_edgeS" edges="edgeN_O edgeS_I" />
    <route id="edgeN_edgeW" edges="edgeN_O edgeW_I" />
    <route id="edgeN_edgeE" edges="edgeN_O edgeE_I" />
    <route id="edgeS_edgeN" edges="edgeS_O edgeN_I" />
    <route id="edgeS_edgeS" edges="edgeS_O edgeS_I" />
    <route id="edgeS_edgeW" edges="edgeS_O edgeW_I" />
    <route id="edgeS_edgeE" edges="edgeS_O edgeE_I" />
    <route id="edgeW_edgeN" edges="edgeW_O edgeN_I" />
    <route id="edgeW_edgeS" edges="edgeW_O edgeS_I" />
    <route id="edgeW_edgeW" edges="edgeW_O edgeW_I" />
    <route id="edgeW_edgeE" edges="edgeW_O edgeE_I" />
    <route id="edgeE_edgeN" edges="edgeE_O edgeN_I" />
    <route id="edgeE_edgeS" edges="edgeE_O edgeS_I" />
    <route id="edgeE_edgeW" edges="edgeE_O edgeW_I" />
    <route id="edgeE_edgeE" edges="edgeE_O edgeE_I" />
    
   <vType id="vehicleS_0" length="4.294000" accel="3.300000" decel="5.587000" sigma="0.5" minGap="2.413583" maxSpeed="134.833121" guiShape="passenger" />
   <vehicle id="straightS_0" type="vehicleS_0" route="edgeS_edgeN" depart="0" departLane="2" />

   <vType id="vehicleE_1" length="4.310000" accel="3.113000" decel="5.165000" sigma="0.5" minGap="2.413583" maxSpeed="134.833121" guiShape="passenger" />
   <vehicle id="straightE_1" type="vehicleE_1" route="edgeE_edgeW" depart="0" departLane="4" />

   <vType id="vehicleW_2" length="5.295000" accel="2.284000" decel="6.058000" sigma="0.5" minGap="2.413583" maxSpeed="134.833121" guiShape="passenger" />
   <vehicle id="straightW_2" type="vehicleW_2" route="edgeW_edgeE" depart="1" departLane="4" />

   <vType id="vehicleE_3" length="4.280000" accel="3.338000" decel="3.490000" sigma="0.5" minGap="2.413583" maxSpeed="134.833121" guiShape="passenger" />
   <vehicle id="straightE_3" type="vehicleE_3" route="edgeE_edgeW" depart="1" departLane="3" />

   <vType id="vehicleN_4" length="4.944000" accel="3.399000" decel="5.780000" sigma="0.5" minGap="2.413583" maxSpeed="134.833121" guiShape="passenger" />
   <vehicle id="rightN_4" type="vehicleN_4" route="edgeN_edgeW" depart="2" departLane="1" />

   <vType id="vehicleS_5" length="4.407000" accel="2.386000" decel="3.967000" sigma="0.5" minGap="2.413583" maxSpeed="134.833121" guiShape="passenger" />
   <vehicle id="straightS_5" type="vehicleS_5" route="edgeS_edgeN" depart="4" departLane="2" />

   <vType id="vehicleE_6" length="4.190000" accel="2.770000" decel="5.563000" sigma="0.5" minGap="2.413583" maxSpeed="134.833121" guiShape="passenger" />
   <vehicle id="rightE_6" type="vehicleE_6" route="edgeE_edgeN" depart="4" departLane="1" />

   <vType id="vehicleS_7" length="4.192000" accel="2.803000" decel="6.728000" sigma="0.5" minGap="2.413583" maxSpeed="134.833121" guiShape="passenger" />
   <vehicle id="straightS_7" type="vehicleS_7" route="edgeS_edgeN" depart="5" departLane="3" />

   <vType id="vehicleS_8" length="4.451000" accel="2.648000" decel="3.887000" sigma="0.5" minGap="2.413583" maxSpeed="134.833121" guiShape="passenger" />
   <vehicle id="leftS_8" type="vehicleS_8" route="edgeS_edgeW" depart="6" departLane="6" />

   <vType id="vehicleW_9" length="5.424000" accel="3.170000" decel="3.639000" sigma="0.5" minGap="2.413583" maxSpeed="134.833121" guiShape="passenger" />
   <vehicle id="straightW_9" type="vehicleW_9" route="edgeW_edgeE" depart="6" departLane="2" />

   <vType id="vehicleE_10" length="4.361000" accel="3.089000" decel="6.393000" sigma="0.5" minGap="2.413583" maxSpeed="134.833121" guiShape="passenger" />
   <vehicle id="straightE_10" type="vehicleE_10" route="edgeE_edgeW" depart="6" departLane="3" />

   <vType id="vehicleN_11" length="4.149000" accel="2.962000" decel="5.875000" sigma="0.5" minGap="2.413583" maxSpeed="134.833121" guiShape="passenger" />
   <vehicle id="uturnN_11" type="vehicleN_11" route="edgeN_edgeN" depart="7" departLane="6" />

   <vType id="vehicleW_12" length="5.075000" accel="3.105000" decel="4.521000" sigma="0.5" minGap="2.413583" maxSpeed="134.833121" guiShape="passenger" />
   <vehicle id="straightW_12" type="vehicleW_12" route="edgeW_edgeE" depart="7" departLane="4" />

   <vType id="vehicleN_13" length="5.383000" accel="2.291000" decel="5.747000" sigma="0.5" minGap="2.413583" maxSpeed="134.833121" guiShape="passenger" />
   <vehicle id="uturnN_13" type="vehicleN_13" route="edgeN_edgeN" depart="8" departLane="6" />

   <vType id="vehicleE_14" length="4.103000" accel="2.880000" decel="4.773000" sigma="0.5" minGap="2.413583" maxSpeed="134.833121" guiShape="passenger" />
   <vehicle id="straightE_14" type="vehicleE_14" route="edgeE_edgeW" depart="8" departLane="4" />

   <vType id="vehicleS_15" length="4.218000" accel="3.546000" decel="6.294000" sigma="0.5" minGap="2.413583" maxSpeed="134.833121" guiShape="passenger" />
   <vehicle id="straightS_15" type="vehicleS_15" route="edgeS_edgeN" depart="9" departLane="4" />

   <vType id="vehicleN_16" length="4.189000" accel="3.603000" decel="6.483000" sigma="0.5" minGap="2.413583" maxSpeed="134.833121" guiShape="passenger" />
   <vehicle id="straightN_16" type="vehicleN_16" route="edgeN_edgeS" depart="10" departLane="2" />

   <vType id="vehicleE_17" length="5.595000" accel="3.398000" decel="3.991000" sigma="0.5" minGap="2.413583" maxSpeed="134.833121" guiShape="passenger" />
   <vehicle id="straightE_17" type="vehicleE_17" route="edgeE_edgeW" depart="10" departLane="2" />

   <vType id="vehicleW_18" length="4.031000" accel="3.334000" decel="5.912000" sigma="0.5" minGap="2.413583" maxSpeed="134.833121" guiShape="passenger" />
   <vehicle id="straightW_18" type="vehicleW_18" route="edgeW_edgeE" depart="11" departLane="2" />

   <vType id="vehicleS_19" length="4.949000" accel="3.618000" decel="6.507000" sigma="0.5" minGap="2.413583" maxSpeed="134.833121" guiShape="passenger" />
   <vehicle id="straightS_19" type="vehicleS_19" route="edgeS_edgeN" depart="12" departLane="3" />

   <vType id="vehicleE_20" length="4.550000" accel="3.528000" decel="4.765000" sigma="0.5" minGap="2.413583" maxSpeed="134.833121" guiShape="passenger" />
   <vehicle id="straightE_20" type="vehicleE_20" route="edgeE_edgeW" depart="12" departLane="2" />

   <vType id="vehicleN_21" length="4.917000" accel="2.595000" decel="3.921000" sigma="0.5" minGap="2.413583" maxSpeed="134.833121" guiShape="passenger" />
   <vehicle id="straightN_21" type="vehicleN_21" route="edgeN_edgeS" depart="13" departLane="2" />

   <vType id="vehicleW_22" length="3.966000" accel="2.735000" decel="4.993000" sigma="0.5" minGap="2.413583" maxSpeed="134.833121" guiShape="passenger" />
   <vehicle id="leftW_22" type="vehicleW_22" route="edgeW_edgeN" depart="13" departLane="5" />

   <vType id="vehicleN_23" length="5.510000" accel="3.070000" decel="4.842000" sigma="0.5" minGap="2.413583" maxSpeed="134.833121" guiShape="passenger" />
   <vehicle id="straightN_23" type="vehicleN_23" route="edgeN_edgeS" depart="14" departLane="5" />

   <vType id="vehicleW_24" length="4.649000" accel="2.865000" decel="4.821000" sigma="0.5" minGap="2.413583" maxSpeed="134.833121" guiShape="passenger" />
   <vehicle id="straightW_24" type="vehicleW_24" route="edgeW_edgeE" depart="14" departLane="4" />

   <vType id="vehicleE_25" length="5.016000" accel="2.359000" decel="5.775000" sigma="0.5" minGap="2.413583" maxSpeed="134.833121" guiShape="passenger" />
   <vehicle id="straightE_25" type="vehicleE_25" route="edgeE_edgeW" depart="14" departLane="2" />

   <vType id="vehicleN_26" length="4.679000" accel="2.862000" decel="4.134000" sigma="0.5" minGap="2.413583" maxSpeed="134.833121" guiShape="passenger" />
   <vehicle id="straightN_26" type="vehicleN_26" route="edgeN_edgeS" depart="15" departLane="3" />

   <vType id="vehicleW_27" length="5.375000" accel="2.411000" decel="5.497000" sigma="0.5" minGap="2.413583" maxSpeed="134.833121" guiShape="passenger" />
   <vehicle id="rightW_27" type="vehicleW_27" route="edgeW_edgeS" depart="15" departLane="1" />

   <vType id="vehicleW_28" length="4.278000" accel="2.833000" decel="3.331000" sigma="0.5" minGap="2.413583" maxSpeed="134.833121" guiShape="passenger" />
   <vehicle id="straightW_28" type="vehicleW_28" route="edgeW_edgeE" depart="16" departLane="3" />

   <vType id="vehicleE_29" length="5.495000" accel="3.368000" decel="4.158000" sigma="0.5" minGap="2.413583" maxSpeed="134.833121" guiShape="passenger" />
   <vehicle id="straightE_29" type="vehicleE_29" route="edgeE_edgeW" depart="16" departLane="4" />

   <vType id="vehicleN_30" length="5.567000" accel="3.081000" decel="5.096000" sigma="0.5" minGap="2.413583" maxSpeed="134.833121" guiShape="passenger" />
   <vehicle id="straightN_30" type="vehicleN_30" route="edgeN_edgeS" depart="18" departLane="4" />

   <vType id="vehicleS_31" length="4.771000" accel="3.462000" decel="3.692000" sigma="0.5" minGap="2.413583" maxSpeed="134.833121" guiShape="passenger" />
   <vehicle id="straightS_31" type="vehicleS_31" route="edgeS_edgeN" depart="18" departLane="2" />

   <vType id="vehicleE_32" length="5.385000" accel="2.837000" decel="6.553000" sigma="0.5" minGap="2.413583" maxSpeed="134.833121" guiShape="passenger" />
   <vehicle id="leftE_32" type="vehicleE_32" route="edgeE_edgeS" depart="18" departLane="5" />

   <vType id="vehicleS_33" length="5.035000" accel="3.062000" decel="4.272000" sigma="0.5" minGap="2.413583" maxSpeed="134.833121" guiShape="passenger" />
   <vehicle id="leftS_33" type="vehicleS_33" route="edgeS_edgeW" depart="19" departLane="6" />

   <vType id="vehicleW_34" length="4.320000" accel="2.826000" decel="5.568000" sigma="0.5" minGap="2.413583" maxSpeed="134.833121" guiShape="passenger" />
   <vehicle id="straightW_34" type="vehicleW_34" route="edgeW_edgeE" depart="19" departLane="3" />

   <vType id="vehicleE_35" length="5.511000" accel="2.288000" decel="5.384000" sigma="0.5" minGap="2.413583" maxSpeed="134.833121" guiShape="passenger" />
   <vehicle id="rightE_35" type="vehicleE_35" route="edgeE_edgeN" depart="19" departLane="1" />

   <vType id="vehicleN_36" length="4.366000" accel="3.574000" decel="6.332000" sigma="0.5" minGap="2.413583" maxSpeed="134.833121" guiShape="passenger" />
   <vehicle id="straightN_36" type="vehicleN_36" route="edgeN_edgeS" depart="20" departLane="3" />

   <vType id="vehicleW_37" length="5.114000" accel="3.127000" decel="6.720000" sigma="0.5" minGap="2.413583" maxSpeed="134.833121" guiShape="passenger" />
   <vehicle id="rightW_37" type="vehicleW_37" route="edgeW_edgeS" depart="20" departLane="1" />

   <vType id="vehicleN_38" length="4.090000" accel="3.498000" decel="4.082000" sigma="0.5" minGap="2.413583" maxSpeed="134.833121" guiShape="passenger" />
   <vehicle id="rightN_38" type="vehicleN_38" route="edgeN_edgeW" depart="21" departLane="1" />

   <vType id="vehicleW_39" length="4.272000" accel="2.752000" decel="5.626000" sigma="0.5" minGap="2.413583" maxSpeed="134.833121" guiShape="passenger" />
   <vehicle id="straightW_39" type="vehicleW_39" route="edgeW_edgeE" depart="21" departLane="3" />

   <vType id="vehicleN_40" length="3.999000" accel="3.158000" decel="6.144000" sigma="0.5" minGap="2.413583" maxSpeed="134.833121" guiShape="passenger" />
   <vehicle id="rightN_40" type="vehicleN_40" route="edgeN_edgeW" depart="22" departLane="1" />

   <vType id="vehicleS_41" length="5.001000" accel="2.640000" decel="5.822000" sigma="0.5" minGap="2.413583" maxSpeed="134.833121" guiShape="passenger" />
   <vehicle id="rightS_41" type="vehicleS_41" route="edgeS_edgeE" depart="22" departLane="2" />

   <vType id="vehicleE_42" length="5.093000" accel="2.482000" decel="3.249000" sigma="0.5" minGap="2.413583" maxSpeed="134.833121" guiShape="passenger" />
   <vehicle id="rightE_42" type="vehicleE_42" route="edgeE_edgeN" depart="22" departLane="1" />

   <vType id="vehicleS_43" length="4.439000" accel="3.527000" decel="6.022000" sigma="0.5" minGap="2.413583" maxSpeed="134.833121" guiShape="passenger" />
   <vehicle id="straightS_43" type="vehicleS_43" route="edgeS_edgeN" depart="23" departLane="2" />

   <vType id="vehicleE_44" length="4.088000" accel="3.361000" decel="6.343000" sigma="0.5" minGap="2.413583" maxSpeed="134.833121" guiShape="passenger" />
   <vehicle id="straightE_44" type="vehicleE_44" route="edgeE_edgeW" depart="23" departLane="3" />

   <vType id="vehicleE_45" length="5.279000" accel="2.521000" decel="4.622000" sigma="0.5" minGap="2.413583" maxSpeed="134.833121" guiShape="passenger" />
   <vehicle id="straightE_45" type="vehicleE_45" route="edgeE_edgeW" depart="24" departLane="2" />

   <vType id="vehicleW_46" length="4.097000" accel="3.489000" decel="6.250000" sigma="0.5" minGap="2.413583" maxSpeed="134.833121" guiShape="passenger" />
   <vehicle id="straightW_46" type="vehicleW_46" route="edgeW_edgeE" depart="26" departLane="2" />

   <vType id="vehicleE_47" length="4.510000" accel="3.417000" decel="6.297000" sigma="0.5" minGap="2.413583" maxSpeed="134.833121" guiShape="passenger" />
   <vehicle id="rightE_47" type="vehicleE_47" route="edgeE_edgeN" depart="26" departLane="1" />

   <vType id="vehicleN_48" length="4.473000" accel="3.478000" decel="6.645000" sigma="0.5" minGap="2.413583" maxSpeed="134.833121" guiShape="passenger" />
   <vehicle id="straightN_48" type="vehicleN_48" route="edgeN_edgeS" depart="27" departLane="4" />

   <vType id="vehicleW_49" length="4.359000" accel="3.083000" decel="6.706000" sigma="0.5" minGap="2.413583" maxSpeed="134.833121" guiShape="passenger" />
   <vehicle id="rightW_49" type="vehicleW_49" route="edgeW_edgeS" depart="28" departLane="1" />

   <vType id="vehicleE_50" length="5.157000" accel="2.712000" decel="5.329000" sigma="0.5" minGap="2.413583" maxSpeed="134.833121" guiShape="passenger" />
   <vehicle id="straightE_50" type="vehicleE_50" route="edgeE_edgeW" depart="28" departLane="4" />

   <vType id="vehicleN_51" length="4.237000" accel="2.337000" decel="4.708000" sigma="0.5" minGap="2.413583" maxSpeed="134.833121" guiShape="passenger" />
   <vehicle id="rightN_51" type="vehicleN_51" route="edgeN_edgeW" depart="29" departLane="1" />

   <vType id="vehicleW_52" length="4.477000" accel="2.712000" decel="6.212000" sigma="0.5" minGap="2.413583" maxSpeed="134.833121" guiShape="passenger" />
   <vehicle id="straightW_52" type="vehicleW_52" route="edgeW_edgeE" depart="29" departLane="4" />

   <vType id="vehicleN_53" length="4.470000" accel="3.246000" decel="5.140000" sigma="0.5" minGap="2.413583" maxSpeed="134.833121" guiShape="passenger" />
   <vehicle id="straightN_53" type="vehicleN_53" route="edgeN_edgeS" depart="30" departLane="3" />

   <vType id="vehicleW_54" length="3.913000" accel="2.674000" decel="4.686000" sigma="0.5" minGap="2.413583" maxSpeed="134.833121" guiShape="passenger" />
   <vehicle id="straightW_54" type="vehicleW_54" route="edgeW_edgeE" depart="31" departLane="4" />

   <vType id="vehicleN_55" length="5.067000" accel="2.987000" decel="6.014000" sigma="0.5" minGap="2.413583" maxSpeed="134.833121" guiShape="passenger" />
   <vehicle id="straightN_55" type="vehicleN_55" route="edgeN_edgeS" depart="32" departLane="3" />

   <vType id="vehicleW_56" length="4.970000" accel="2.405000" decel="6.591000" sigma="0.5" minGap="2.413583" maxSpeed="134.833121" guiShape="passenger" />
   <vehicle id="straightW_56" type="vehicleW_56" route="edgeW_edgeE" depart="32" departLane="2" />

   <vType id="vehicleN_57" length="3.954000" accel="2.616000" decel="4.851000" sigma="0.5" minGap="2.413583" maxSpeed="134.833121" guiShape="passenger" />
   <vehicle id="straightN_57" type="vehicleN_57" route="edgeN_edgeS" depart="33" departLane="2" />

   <vType id="vehicleE_58" length="5.437000" accel="3.473000" decel="6.348000" sigma="0.5" minGap="2.413583" maxSpeed="134.833121" guiShape="passenger" />
   <vehicle id="straightE_58" type="vehicleE_58" route="edgeE_edgeW" depart="34" departLane="3" />

   <vType id="vehicleN_59" length="5.101000" accel="2.922000" decel="5.151000" sigma="0.5" minGap="2.413583" maxSpeed="134.833121" guiShape="passenger" />
   <vehicle id="rightN_59" type="vehicleN_59" route="edgeN_edgeW" depart="35" departLane="1" />

   <vType id="vehicleN_60" length="5.183000" accel="2.936000" decel="4.063000" sigma="0.5" minGap="2.413583" maxSpeed="134.833121" guiShape="passenger" />
   <vehicle id="rightN_60" type="vehicleN_60" route="edgeN_edgeW" depart="38" departLane="1" />

   <vType id="vehicleW_61" length="4.740000" accel="2.608000" decel="4.722000" sigma="0.5" minGap="2.413583" maxSpeed="134.833121" guiShape="passenger" />
   <vehicle id="straightW_61" type="vehicleW_61" route="edgeW_edgeE" depart="38" departLane="4" />

   <vType id="vehicleE_62" length="4.459000" accel="3.027000" decel="3.622000" sigma="0.5" minGap="2.413583" maxSpeed="134.833121" guiShape="passenger" />
   <vehicle id="straightE_62" type="vehicleE_62" route="edgeE_edgeW" depart="38" departLane="2" />

   <vType id="vehicleN_63" length="4.278000" accel="2.853000" decel="4.325000" sigma="0.5" minGap="2.413583" maxSpeed="134.833121" guiShape="passenger" />
   <vehicle id="straightN_63" type="vehicleN_63" route="edgeN_edgeS" depart="39" departLane="5" />

   <vType id="vehicleW_64" length="5.458000" accel="3.088000" decel="5.655000" sigma="0.5" minGap="2.413583" maxSpeed="134.833121" guiShape="passenger" />
   <vehicle id="straightW_64" type="vehicleW_64" route="edgeW_edgeE" depart="39" departLane="4" />

   <vType id="vehicleE_65" length="4.513000" accel="3.324000" decel="6.232000" sigma="0.5" minGap="2.413583" maxSpeed="134.833121" guiShape="passenger" />
   <vehicle id="leftE_65" type="vehicleE_65" route="edgeE_edgeS" depart="39" departLane="5" />

   <vType id="vehicleN_66" length="5.279000" accel="3.525000" decel="4.899000" sigma="0.5" minGap="2.413583" maxSpeed="134.833121" guiShape="passenger" />
   <vehicle id="straightN_66" type="vehicleN_66" route="edgeN_edgeS" depart="40" departLane="4" />

   <vType id="vehicleW_67" length="5.073000" accel="2.838000" decel="3.719000" sigma="0.5" minGap="2.413583" maxSpeed="134.833121" guiShape="passenger" />
   <vehicle id="straightW_67" type="vehicleW_67" route="edgeW_edgeE" depart="40" departLane="3" />

   <vType id="vehicleS_68" length="5.393000" accel="2.528000" decel="4.067000" sigma="0.5" minGap="2.413583" maxSpeed="134.833121" guiShape="passenger" />
   <vehicle id="straightS_68" type="vehicleS_68" route="edgeS_edgeN" depart="42" departLane="4" />

   <vType id="vehicleW_69" length="5.213000" accel="2.803000" decel="5.861000" sigma="0.5" minGap="2.413583" maxSpeed="134.833121" guiShape="passenger" />
   <vehicle id="straightW_69" type="vehicleW_69" route="edgeW_edgeE" depart="42" departLane="3" />

   <vType id="vehicleE_70" length="3.946000" accel="3.026000" decel="6.766000" sigma="0.5" minGap="2.413583" maxSpeed="134.833121" guiShape="passenger" />
   <vehicle id="leftE_70" type="vehicleE_70" route="edgeE_edgeS" depart="42" departLane="5" />

   <vType id="vehicleN_71" length="5.548000" accel="2.331000" decel="3.230000" sigma="0.5" minGap="2.413583" maxSpeed="134.833121" guiShape="passenger" />
   <vehicle id="leftN_71" type="vehicleN_71" route="edgeN_edgeE" depart="43" departLane="6" />

   <vType id="vehicleS_72" length="4.173000" accel="2.451000" decel="5.560000" sigma="0.5" minGap="2.413583" maxSpeed="134.833121" guiShape="passenger" />
   <vehicle id="leftS_72" type="vehicleS_72" route="edgeS_edgeW" depart="43" departLane="6" />

   <vType id="vehicleE_73" length="4.947000" accel="3.617000" decel="5.739000" sigma="0.5" minGap="2.413583" maxSpeed="134.833121" guiShape="passenger" />
   <vehicle id="straightE_73" type="vehicleE_73" route="edgeE_edgeW" depart="43" departLane="2" />

   <vType id="vehicleS_74" length="4.445000" accel="3.218000" decel="6.614000" sigma="0.5" minGap="2.413583" maxSpeed="134.833121" guiShape="passenger" />
   <vehicle id="leftS_74" type="vehicleS_74" route="edgeS_edgeW" depart="44" departLane="6" />

   <vType id="vehicleE_75" length="5.331000" accel="2.613000" decel="5.661000" sigma="0.5" minGap="2.413583" maxSpeed="134.833121" guiShape="passenger" />
   <vehicle id="straightE_75" type="vehicleE_75" route="edgeE_edgeW" depart="44" departLane="3" />

   <vType id="vehicleW_76" length="5.249000" accel="2.758000" decel="4.680000" sigma="0.5" minGap="2.413583" maxSpeed="134.833121" guiShape="passenger" />
   <vehicle id="uturnW_76" type="vehicleW_76" route="edgeW_edgeW" depart="45" departLane="5" />

   <vType id="vehicleE_77" length="4.495000" accel="3.458000" decel="6.118000" sigma="0.5" minGap="2.413583" maxSpeed="134.833121" guiShape="passenger" />
   <vehicle id="straightE_77" type="vehicleE_77" route="edgeE_edgeW" depart="45" departLane="2" />

   <vType id="vehicleN_78" length="5.435000" accel="2.915000" decel="3.675000" sigma="0.5" minGap="2.413583" maxSpeed="134.833121" guiShape="passenger" />
   <vehicle id="straightN_78" type="vehicleN_78" route="edgeN_edgeS" depart="46" departLane="3" />

   <vType id="vehicleE_79" length="4.832000" accel="2.948000" decel="4.707000" sigma="0.5" minGap="2.413583" maxSpeed="134.833121" guiShape="passenger" />
   <vehicle id="rightE_79" type="vehicleE_79" route="edgeE_edgeN" depart="46" departLane="1" />

   <vType id="vehicleN_80" length="5.509000" accel="2.663000" decel="4.762000" sigma="0.5" minGap="2.413583" maxSpeed="134.833121" guiShape="passenger" />
   <vehicle id="straightN_80" type="vehicleN_80" route="edgeN_edgeS" depart="47" departLane="5" />

   <vType id="vehicleE_81" length="4.468000" accel="2.954000" decel="4.412000" sigma="0.5" minGap="2.413583" maxSpeed="134.833121" guiShape="passenger" />
   <vehicle id="straightE_81" type="vehicleE_81" route="edgeE_edgeW" depart="47" departLane="3" />

   <vType id="vehicleN_82" length="5.110000" accel="2.660000" decel="3.154000" sigma="0.5" minGap="2.413583" maxSpeed="134.833121" guiShape="passenger" />
   <vehicle id="rightN_82" type="vehicleN_82" route="edgeN_edgeW" depart="48" departLane="1" />

   <vType id="vehicleS_83" length="4.747000" accel="3.331000" decel="5.637000" sigma="0.5" minGap="2.413583" maxSpeed="134.833121" guiShape="passenger" />
   <vehicle id="straightS_83" type="vehicleS_83" route="edgeS_edgeN" depart="48" departLane="5" />

   <vType id="vehicleE_84" length="4.603000" accel="2.614000" decel="5.540000" sigma="0.5" minGap="2.413583" maxSpeed="134.833121" guiShape="passenger" />
   <vehicle id="straightE_84" type="vehicleE_84" route="edgeE_edgeW" depart="48" departLane="3" />

   <vType id="vehicleN_85" length="4.639000" accel="3.314000" decel="4.324000" sigma="0.5" minGap="2.413583" maxSpeed="134.833121" guiShape="passenger" />
   <vehicle id="straightN_85" type="vehicleN_85" route="edgeN_edgeS" depart="49" departLane="5" />

   <vType id="vehicleS_86" length="4.119000" accel="2.543000" decel="3.553000" sigma="0.5" minGap="2.413583" maxSpeed="134.833121" guiShape="passenger" />
   <vehicle id="straightS_86" type="vehicleS_86" route="edgeS_edgeN" depart="49" departLane="3" />

   <vType id="vehicleW_87" length="4.385000" accel="3.096000" decel="5.891000" sigma="0.5" minGap="2.413583" maxSpeed="134.833121" guiShape="passenger" />
   <vehicle id="straightW_87" type="vehicleW_87" route="edgeW_edgeE" depart="49" departLane="4" />

   <vType id="vehicleE_88" length="4.244000" accel="2.592000" decel="3.772000" sigma="0.5" minGap="2.413583" maxSpeed="134.833121" guiShape="passenger" />
   <vehicle id="straightE_88" type="vehicleE_88" route="edgeE_edgeW" depart="49" departLane="2" />

   <vType id="vehicleS_89" length="4.006000" accel="2.682000" decel="6.562000" sigma="0.5" minGap="2.413583" maxSpeed="134.833121" guiShape="passenger" />
   <vehicle id="leftS_89" type="vehicleS_89" route="edgeS_edgeW" depart="50" departLane="6" />

   <vType id="vehicleW_90" length="4.398000" accel="2.941000" decel="4.360000" sigma="0.5" minGap="2.413583" maxSpeed="134.833121" guiShape="passenger" />
   <vehicle id="leftW_90" type="vehicleW_90" route="edgeW_edgeN" depart="50" departLane="5" />

   <vType id="vehicleE_91" length="4.107000" accel="2.366000" decel="4.912000" sigma="0.5" minGap="2.413583" maxSpeed="134.833121" guiShape="passenger" />
   <vehicle id="rightE_91" type="vehicleE_91" route="edgeE_edgeN" depart="50" departLane="1" />

   <vType id="vehicleN_92" length="5.534000" accel="2.393000" decel="4.023000" sigma="0.5" minGap="2.413583" maxSpeed="134.833121" guiShape="passenger" />
   <vehicle id="rightN_92" type="vehicleN_92" route="edgeN_edgeW" depart="51" departLane="2" />

   <vType id="vehicleE_93" length="4.682000" accel="2.891000" decel="6.256000" sigma="0.5" minGap="2.413583" maxSpeed="134.833121" guiShape="passenger" />
   <vehicle id="straightE_93" type="vehicleE_93" route="edgeE_edgeW" depart="51" departLane="3" />

   <vType id="vehicleN_94" length="4.954000" accel="3.305000" decel="6.575000" sigma="0.5" minGap="2.413583" maxSpeed="134.833121" guiShape="passenger" />
   <vehicle id="straightN_94" type="vehicleN_94" route="edgeN_edgeS" depart="52" departLane="3" />

   <vType id="vehicleW_95" length="4.322000" accel="3.044000" decel="3.688000" sigma="0.5" minGap="2.413583" maxSpeed="134.833121" guiShape="passenger" />
   <vehicle id="leftW_95" type="vehicleW_95" route="edgeW_edgeN" depart="52" departLane="5" />

   <vType id="vehicleE_96" length="4.410000" accel="2.597000" decel="5.697000" sigma="0.5" minGap="2.413583" maxSpeed="134.833121" guiShape="passenger" />
   <vehicle id="straightE_96" type="vehicleE_96" route="edgeE_edgeW" depart="52" departLane="4" />

   <vType id="vehicleS_97" length="4.364000" accel="3.377000" decel="5.269000" sigma="0.5" minGap="2.413583" maxSpeed="134.833121" guiShape="passenger" />
   <vehicle id="straightS_97" type="vehicleS_97" route="edgeS_edgeN" depart="53" departLane="3" />

   <vType id="vehicleE_98" length="4.438000" accel="3.318000" decel="5.194000" sigma="0.5" minGap="2.413583" maxSpeed="134.833121" guiShape="passenger" />
   <vehicle id="straightE_98" type="vehicleE_98" route="edgeE_edgeW" depart="54" departLane="3" />

   <vType id="vehicleN_99" length="4.432000" accel="2.835000" decel="4.111000" sigma="0.5" minGap="2.413583" maxSpeed="134.833121" guiShape="passenger" />
   <vehicle id="straightN_99" type="vehicleN_99" route="edgeN_edgeS" depart="55" departLane="5" />

   <vType id="vehicleW_100" length="5.064000" accel="3.473000" decel="5.260000" sigma="0.5" minGap="2.413583" maxSpeed="134.833121" guiShape="passenger" />
   <vehicle id="straightW_100" type="vehicleW_100" route="edgeW_edgeE" depart="56" departLane="2" />

   <vType id="vehicleS_101" length="5.204000" accel="2.930000" decel="5.495000" sigma="0.5" minGap="2.413583" maxSpeed="134.833121" guiShape="passenger" />
   <vehicle id="leftS_101" type="vehicleS_101" route="edgeS_edgeW" depart="57" departLane="6" />

   <vType id="vehicleW_102" length="4.997000" accel="2.960000" decel="3.450000" sigma="0.5" minGap="2.413583" maxSpeed="134.833121" guiShape="passenger" />
   <vehicle id="straightW_102" type="vehicleW_102" route="edgeW_edgeE" depart="57" departLane="3" />

   <vType id="vehicleE_103" length="4.091000" accel="2.499000" decel="4.619000" sigma="0.5" minGap="2.413583" maxSpeed="134.833121" guiShape="passenger" />
   <vehicle id="straightE_103" type="vehicleE_103" route="edgeE_edgeW" depart="57" departLane="3" />

   <vType id="vehicleN_104" length="5.302000" accel="3.041000" decel="4.777000" sigma="0.5" minGap="2.413583" maxSpeed="134.833121" guiShape="passenger" />
   <vehicle id="rightN_104" type="vehicleN_104" route="edgeN_edgeW" depart="58" departLane="2" />

   <vType id="vehicleS_105" length="5.232000" accel="3.479000" decel="6.127000" sigma="0.5" minGap="2.413583" maxSpeed="134.833121" guiShape="passenger" />
   <vehicle id="straightS_105" type="vehicleS_105" route="edgeS_edgeN" depart="58" departLane="2" />

   <vType id="vehicleN_106" length="4.531000" accel="3.328000" decel="5.399000" sigma="0.5" minGap="2.413583" maxSpeed="134.833121" guiShape="passenger" />
   <vehicle id="straightN_106" type="vehicleN_106" route="edgeN_edgeS" depart="59" departLane="2" />

   <vType id="vehicleS_107" length="5.497000" accel="2.885000" decel="5.665000" sigma="0.5" minGap="2.413583" maxSpeed="134.833121" guiShape="passenger" />
   <vehicle id="straightS_107" type="vehicleS_107" route="edgeS_edgeN" depart="59" departLane="2" />

   <vType id="vehicleW_108" length="5.278000" accel="3.263000" decel="4.251000" sigma="0.5" minGap="2.413583" maxSpeed="134.833121" guiShape="passenger" />
   <vehicle id="straightW_108" type="vehicleW_108" route="edgeW_edgeE" depart="59" departLane="2" />
