<edges xmlns:xsi="http://www.w3.org/2001/XMLSchema-instance" xsi:noNamespaceSchemaLocation="http://sumo.dlr.de/xsd/edges_file.xsd">
   <edge id="edgeN_O" from="juncN" to="juncMain" priority="78" numLanes="2" speed="16.345904410627334" disallow="pedestrian">
      <lane index="0" allow="pedestrian" />
   </edge>
   <edge id="edgeN_I" from="juncMain" to="juncN" priority="46" numLanes="2" speed="23.638944079084382" disallow="pedestrian">
      <lane index="0" allow="pedestrian" />
   </edge>

   <edge id="edgeS_O" from="juncS" to="juncMain" priority="78" numLanes="2" speed="16.345904410627334" disallow="pedestrian">
      <lane index="0" allow="pedestrian" />
   </edge>
   <edge id="edgeS_I" from="juncMain" to="juncS" priority="46" numLanes="2" speed="23.638944079084382" disallow="pedestrian">
      <lane index="0" allow="pedestrian" />
   </edge>

   <edge id="edgeW_O" from="juncW" to="juncMain" priority="78" numLanes="7" speed="21.589493201561773" disallow="pedestrian">
      <lane index="0" allow="pedestrian" />
   </edge>
   <edge id="edgeW_I" from="juncMain" to="juncW" priority="46" numLanes="7" speed="12.323876448745281" disallow="pedestrian">
      <lane index="0" allow="pedestrian" />
   </edge>

   <edge id="edgeE_O" from="juncE" to="juncMain" priority="78" numLanes="7" speed="21.589493201561773" disallow="pedestrian">
      <lane index="0" allow="pedestrian" />
   </edge>
   <edge id="edgeE_I" from="juncMain" to="juncE" priority="46" numLanes="7" speed="12.323876448745281" disallow="pedestrian">
      <lane index="0" allow="pedestrian" />
   </edge>


</edges>