<?xml version="1.0" encoding="UTF-8"?>

<!-- generated on 2021-10-23 05:40:17 by Eclipse SUMO netconvert Version 1.10.0
<configuration xmlns:xsi="http://www.w3.org/2001/XMLSchema-instance" xsi:noNamespaceSchemaLocation="http://sumo.dlr.de/xsd/netconvertConfiguration.xsd">

    <input>
        <node-files value="data4/cross.nod.xml"/>
        <edge-files value="data4/cross.edg.xml"/>
        <connection-files value="data4/cross.con.xml"/>
    </input>

    <output>
        <output-file value="data4/cross.net.xml"/>
    </output>

    <junctions>
        <no-turnarounds.except-turnlane value="true"/>
    </junctions>

    <report>
        <aggregate-warnings value="5"/>
    </report>

</configuration>
-->

<net version="1.9" junctionCornerDetail="5" limitTurnSpeed="5.50" xmlns:xsi="http://www.w3.org/2001/XMLSchema-instance" xsi:noNamespaceSchemaLocation="http://sumo.dlr.de/xsd/net_file.xsd">

    <location netOffset="600.00,700.00" convBoundary="0.00,0.00,1300.00,1500.00" origBoundary="-600.00,-700.00,700.00,800.00" projParameter="!"/>

    <edge id=":juncE_0" function="internal">
        <lane id=":juncE_0_0" index="0" disallow="pedestrian" speed="3.65" length="4.67" shape="1300.00,698.40 1301.20,699.20 1301.60,700.00 1301.20,700.80 1300.00,701.60"/>
    </edge>
    <edge id=":juncE_w0" function="walkingarea">
        <lane id=":juncE_w0_0" index="0" allow="pedestrian" speed="1.00" length="41.60" width="3.20" shape="1300.00,719.20 1300.00,722.40 1300.00,677.60 1300.00,680.80"/>
    </edge>
    <edge id=":juncMain_0" function="internal">
        <lane id=":juncMain_0_0" index="0" disallow="pedestrian" speed="6.86" length="5.34" shape="598.40,723.90 598.01,721.14 596.82,719.17 596.60,719.04"/>
        <lane id=":juncMain_0_1" index="1" disallow="pedestrian" speed="7.64" length="7.67" shape="598.40,723.90 598.01,719.74 596.82,716.77 596.60,716.57"/>
    </edge>
    <edge id=":juncMain_22" function="internal">
        <lane id=":juncMain_22_0" index="0" disallow="pedestrian" speed="6.86" length="4.82" shape="596.60,719.04 594.86,717.99 592.10,717.60"/>
    </edge>
    <edge id=":juncMain_23" function="internal">
        <lane id=":juncMain_23_0" index="0" disallow="pedestrian" speed="7.64" length="5.17" shape="596.60,716.57 594.86,714.99 592.10,714.40"/>
    </edge>
    <edge id=":juncMain_2" function="internal">
        <lane id=":juncMain_2_0" index="0" disallow="pedestrian" speed="6.86" length="5.34" shape="607.90,717.60 605.14,717.99 603.17,719.18 603.04,719.40"/>
        <lane id=":juncMain_2_1" index="1" disallow="pedestrian" speed="7.64" length="8.30" shape="607.90,714.40 605.14,714.99 603.17,716.77 602.13,719.40"/>
    </edge>
    <edge id=":juncMain_4" function="internal">
        <lane id=":juncMain_4_0" index="0" disallow="pedestrian" speed="16.96" length="15.80" shape="607.90,714.40 592.10,714.40"/>
        <lane id=":juncMain_4_1" index="1" disallow="pedestrian" speed="16.96" length="15.80" shape="607.90,711.20 592.10,711.20"/>
        <lane id=":juncMain_4_2" index="2" disallow="pedestrian" speed="16.96" length="15.80" shape="607.90,708.00 592.10,708.00"/>
        <lane id=":juncMain_4_3" index="3" disallow="pedestrian" speed="16.96" length="15.80" shape="607.90,704.80 592.10,704.80"/>
    </edge>
    <edge id=":juncMain_8" function="internal">
        <lane id=":juncMain_8_0" index="0" disallow="pedestrian" speed="11.85" length="11.51" shape="607.90,704.80 603.74,703.01 600.77,697.62 600.61,696.80"/>
        <lane id=":juncMain_8_1" index="1" disallow="pedestrian" speed="11.31" length="8.23" shape="607.90,701.60 603.74,700.01 601.75,696.80"/>
    </edge>
    <edge id=":juncMain_10" function="internal">
        <lane id=":juncMain_10_0" index="0" disallow="pedestrian" speed="3.65" length="2.34" shape="607.90,701.60 606.70,700.80 606.30,700.00"/>
    </edge>
    <edge id=":juncMain_24" function="internal">
        <lane id=":juncMain_24_0" index="0" disallow="pedestrian" speed="6.86" length="4.82" shape="603.04,719.40 601.99,721.14 601.60,723.90"/>
    </edge>
    <edge id=":juncMain_25" function="internal">
        <lane id=":juncMain_25_0" index="0" disallow="pedestrian" speed="7.64" length="4.54" shape="602.13,719.40 601.99,719.74 601.60,723.90"/>
    </edge>
    <edge id=":juncMain_26" function="internal">
        <lane id=":juncMain_26_0" index="0" disallow="pedestrian" speed="11.85" length="20.87" shape="600.61,696.80 598.99,688.66 598.40,676.10"/>
    </edge>
    <edge id=":juncMain_27" function="internal">
        <lane id=":juncMain_27_0" index="0" disallow="pedestrian" speed="11.31" length="21.19" shape="601.75,696.80 600.77,695.23 598.99,687.26 598.40,676.10"/>
    </edge>
    <edge id=":juncMain_28" function="internal">
        <lane id=":juncMain_28_0" index="0" disallow="pedestrian" speed="3.65" length="2.34" shape="606.30,700.00 606.70,699.20 607.90,698.40"/>
    </edge>
    <edge id=":juncMain_11" function="internal">
        <lane id=":juncMain_11_0" index="0" disallow="pedestrian" speed="6.86" length="5.34" shape="601.60,676.10 601.99,678.86 603.18,680.83 603.40,680.96"/>
        <lane id=":juncMain_11_1" index="1" disallow="pedestrian" speed="7.64" length="7.67" shape="601.60,676.10 601.99,680.26 603.18,683.23 603.40,683.43"/>
    </edge>
    <edge id=":juncMain_29" function="internal">
        <lane id=":juncMain_29_0" index="0" disallow="pedestrian" speed="6.86" length="4.82" shape="603.40,680.96 605.14,682.01 607.90,682.40"/>
    </edge>
    <edge id=":juncMain_30" function="internal">
        <lane id=":juncMain_30_0" index="0" disallow="pedestrian" speed="7.64" length="5.17" shape="603.40,683.43 605.14,685.01 607.90,685.60"/>
    </edge>
    <edge id=":juncMain_13" function="internal">
        <lane id=":juncMain_13_0" index="0" disallow="pedestrian" speed="6.86" length="5.34" shape="592.10,682.40 594.86,682.01 596.83,680.82 596.96,680.60"/>
        <lane id=":juncMain_13_1" index="1" disallow="pedestrian" speed="7.64" length="8.30" shape="592.10,685.60 594.86,685.01 596.83,683.23 597.87,680.60"/>
    </edge>
    <edge id=":juncMain_15" function="internal">
        <lane id=":juncMain_15_0" index="0" disallow="pedestrian" speed="16.96" length="15.80" shape="592.10,685.60 607.90,685.60"/>
        <lane id=":juncMain_15_1" index="1" disallow="pedestrian" speed="16.96" length="15.80" shape="592.10,688.80 607.90,688.80"/>
        <lane id=":juncMain_15_2" index="2" disallow="pedestrian" speed="16.96" length="15.80" shape="592.10,692.00 607.90,692.00"/>
        <lane id=":juncMain_15_3" index="3" disallow="pedestrian" speed="16.96" length="15.80" shape="592.10,695.20 607.90,695.20"/>
    </edge>
    <edge id=":juncMain_19" function="internal">
        <lane id=":juncMain_19_0" index="0" disallow="pedestrian" speed="11.85" length="11.51" shape="592.10,695.20 596.26,696.99 599.23,702.38 599.39,703.20"/>
        <lane id=":juncMain_19_1" index="1" disallow="pedestrian" speed="11.31" length="8.23" shape="592.10,698.40 596.26,699.99 598.25,703.20"/>
    </edge>
    <edge id=":juncMain_21" function="internal">
        <lane id=":juncMain_21_0" index="0" disallow="pedestrian" speed="3.65" length="2.34" shape="592.10,698.40 593.30,699.20 593.70,700.00"/>
    </edge>
    <edge id=":juncMain_31" function="internal">
        <lane id=":juncMain_31_0" index="0" disallow="pedestrian" speed="6.86" length="4.82" shape="596.96,680.60 598.01,678.86 598.40,676.10"/>
    </edge>
    <edge id=":juncMain_32" function="internal">
        <lane id=":juncMain_32_0" index="0" disallow="pedestrian" speed="7.64" length="4.54" shape="597.87,680.60 598.01,680.26 598.40,676.10"/>
    </edge>
    <edge id=":juncMain_33" function="internal">
        <lane id=":juncMain_33_0" index="0" disallow="pedestrian" speed="11.85" length="20.87" shape="599.39,703.20 601.01,711.34 601.60,723.90"/>
    </edge>
    <edge id=":juncMain_34" function="internal">
        <lane id=":juncMain_34_0" index="0" disallow="pedestrian" speed="11.31" length="21.19" shape="598.25,703.20 599.23,704.77 601.01,712.74 601.60,723.90"/>
    </edge>
    <edge id=":juncMain_35" function="internal">
        <lane id=":juncMain_35_0" index="0" disallow="pedestrian" speed="3.65" length="2.34" shape="593.70,700.00 593.30,700.80 592.10,701.60"/>
    </edge>
    <edge id=":juncMain_c0" function="crossing" crossingEdges="edgeN_I edgeN_O">
        <lane id=":juncMain_c0_0" index="0" allow="pedestrian" speed="1.00" length="6.40" width="4.50" shape="603.20,721.65 596.80,721.65"/>
    </edge>
    <edge id=":juncMain_c1" function="crossing" crossingEdges="edgeE_I edgeE_O">
        <lane id=":juncMain_c1_0" index="0" allow="pedestrian" speed="1.00" length="38.40" width="4.50" shape="605.65,680.80 605.65,719.20"/>
    </edge>
    <edge id=":juncMain_c2" function="crossing" crossingEdges="edgeS_I edgeS_O">
        <lane id=":juncMain_c2_0" index="0" allow="pedestrian" speed="1.00" length="6.40" width="4.50" shape="596.80,678.35 603.20,678.35"/>
    </edge>
    <edge id=":juncMain_c3" function="crossing" crossingEdges="edgeW_I edgeW_O">
        <lane id=":juncMain_c3_0" index="0" allow="pedestrian" speed="1.00" length="38.40" width="4.50" shape="594.35,719.20 594.35,680.80"/>
    </edge>
    <edge id=":juncMain_w0" function="walkingarea">
        <lane id=":juncMain_w0_0" index="0" allow="pedestrian" speed="1.00" length="3.82" width="4.50" shape="592.10,719.20 592.10,722.40 593.60,723.90 596.80,723.90 596.67,722.46 596.28,721.29 595.62,720.38 594.71,719.72 593.54,719.33"/>
    </edge>
    <edge id=":juncMain_w1" function="walkingarea">
        <lane id=":juncMain_w1_0" index="0" allow="pedestrian" speed="1.00" length="3.82" width="4.50" shape="603.20,723.90 606.40,723.90 607.90,722.40 607.90,719.20 606.46,719.33 605.29,719.72 604.38,720.38 603.72,721.29 603.33,722.46"/>
    </edge>
    <edge id=":juncMain_w2" function="walkingarea">
        <lane id=":juncMain_w2_0" index="0" allow="pedestrian" speed="1.00" length="3.82" width="4.50" shape="607.90,680.80 607.90,677.60 606.40,676.10 603.20,676.10 603.33,677.54 603.72,678.71 604.38,679.62 605.29,680.28 606.46,680.67"/>
    </edge>
    <edge id=":juncMain_w3" function="walkingarea">
        <lane id=":juncMain_w3_0" index="0" allow="pedestrian" speed="1.00" length="3.82" width="4.50" shape="596.80,676.10 593.60,676.10 592.10,677.60 592.10,680.80 593.54,680.67 594.71,680.28 595.62,679.62 596.28,678.71 596.67,677.54"/>
    </edge>
    <edge id=":juncN_0" function="internal">
        <lane id=":juncN_0_0" index="0" disallow="pedestrian" speed="3.65" length="4.67" shape="601.60,1500.00 600.80,1501.20 600.00,1501.60 599.20,1501.20 598.40,1500.00"/>
    </edge>
    <edge id=":juncN_w0" function="walkingarea">
        <lane id=":juncN_w0_0" index="0" allow="pedestrian" speed="1.00" length="9.60" width="3.20" shape="596.80,1500.00 593.60,1500.00 606.40,1500.00 603.20,1500.00"/>
    </edge>
    <edge id=":juncS_0" function="internal">
        <lane id=":juncS_0_0" index="0" disallow="pedestrian" speed="3.65" length="4.67" shape="598.40,0.00 599.20,-1.20 600.00,-1.60 600.80,-1.20 601.60,0.00"/>
    </edge>
    <edge id=":juncS_w0" function="walkingarea">
        <lane id=":juncS_w0_0" index="0" allow="pedestrian" speed="1.00" length="9.60" width="3.20" shape="603.20,0.00 606.40,0.00 593.60,0.00 596.80,0.00"/>
    </edge>
    <edge id=":juncW_0" function="internal">
        <lane id=":juncW_0_0" index="0" disallow="pedestrian" speed="3.65" length="4.67" shape="0.00,701.60 -1.20,700.80 -1.60,700.00 -1.20,699.20 0.00,698.40"/>
    </edge>
    <edge id=":juncW_w0" function="walkingarea">
        <lane id=":juncW_w0_0" index="0" allow="pedestrian" speed="1.00" length="41.60" width="3.20" shape="0.00,680.80 0.00,677.60 0.00,722.40 0.00,719.20"/>
    </edge>

    <edge id="edgeE_I" from="juncMain" to="juncE" priority="46">
        <lane id="edgeE_I_0" index="0" allow="pedestrian" speed="12.32" length="692.10" shape="607.90,679.20 1300.00,679.20"/>
        <lane id="edgeE_I_1" index="1" disallow="pedestrian" speed="12.32" length="692.10" shape="607.90,682.40 1300.00,682.40"/>
        <lane id="edgeE_I_2" index="2" disallow="pedestrian" speed="12.32" length="692.10" shape="607.90,685.60 1300.00,685.60"/>
        <lane id="edgeE_I_3" index="3" disallow="pedestrian" speed="12.32" length="692.10" shape="607.90,688.80 1300.00,688.80"/>
        <lane id="edgeE_I_4" index="4" disallow="pedestrian" speed="12.32" length="692.10" shape="607.90,692.00 1300.00,692.00"/>
        <lane id="edgeE_I_5" index="5" disallow="pedestrian" speed="12.32" length="692.10" shape="607.90,695.20 1300.00,695.20"/>
        <lane id="edgeE_I_6" index="6" disallow="pedestrian" speed="12.32" length="692.10" shape="607.90,698.40 1300.00,698.40"/>
    </edge>
    <edge id="edgeE_O" from="juncE" to="juncMain" priority="78">
        <lane id="edgeE_O_0" index="0" allow="pedestrian" speed="21.59" length="692.10" shape="1300.00,720.80 607.90,720.80"/>
        <lane id="edgeE_O_1" index="1" disallow="pedestrian" speed="21.59" length="692.10" shape="1300.00,717.60 607.90,717.60"/>
        <lane id="edgeE_O_2" index="2" disallow="pedestrian" speed="21.59" length="692.10" shape="1300.00,714.40 607.90,714.40"/>
        <lane id="edgeE_O_3" index="3" disallow="pedestrian" speed="21.59" length="692.10" shape="1300.00,711.20 607.90,711.20"/>
        <lane id="edgeE_O_4" index="4" disallow="pedestrian" speed="21.59" length="692.10" shape="1300.00,708.00 607.90,708.00"/>
        <lane id="edgeE_O_5" index="5" disallow="pedestrian" speed="21.59" length="692.10" shape="1300.00,704.80 607.90,704.80"/>
        <lane id="edgeE_O_6" index="6" disallow="pedestrian" speed="21.59" length="692.10" shape="1300.00,701.60 607.90,701.60"/>
    </edge>
    <edge id="edgeN_I" from="juncMain" to="juncN" priority="46">
        <lane id="edgeN_I_0" index="0" allow="pedestrian" speed="23.64" length="776.10" shape="604.80,723.90 604.80,1500.00"/>
        <lane id="edgeN_I_1" index="1" disallow="pedestrian" speed="23.64" length="776.10" shape="601.60,723.90 601.60,1500.00"/>
    </edge>
    <edge id="edgeN_O" from="juncN" to="juncMain" priority="78">
        <lane id="edgeN_O_0" index="0" allow="pedestrian" speed="16.35" length="776.10" shape="595.20,1500.00 595.20,723.90"/>
        <lane id="edgeN_O_1" index="1" disallow="pedestrian" speed="16.35" length="776.10" shape="598.40,1500.00 598.40,723.90"/>
    </edge>
    <edge id="edgeS_I" from="juncMain" to="juncS" priority="46">
        <lane id="edgeS_I_0" index="0" allow="pedestrian" speed="23.64" length="676.10" shape="595.20,676.10 595.20,0.00"/>
        <lane id="edgeS_I_1" index="1" disallow="pedestrian" speed="23.64" length="676.10" shape="598.40,676.10 598.40,0.00"/>
    </edge>
    <edge id="edgeS_O" from="juncS" to="juncMain" priority="78">
        <lane id="edgeS_O_0" index="0" allow="pedestrian" speed="16.35" length="676.10" shape="604.80,0.00 604.80,676.10"/>
        <lane id="edgeS_O_1" index="1" disallow="pedestrian" speed="16.35" length="676.10" shape="601.60,0.00 601.60,676.10"/>
    </edge>
    <edge id="edgeW_I" from="juncMain" to="juncW" priority="46">
        <lane id="edgeW_I_0" index="0" allow="pedestrian" speed="12.32" length="592.10" shape="592.10,720.80 0.00,720.80"/>
        <lane id="edgeW_I_1" index="1" disallow="pedestrian" speed="12.32" length="592.10" shape="592.10,717.60 0.00,717.60"/>
        <lane id="edgeW_I_2" index="2" disallow="pedestrian" speed="12.32" length="592.10" shape="592.10,714.40 0.00,714.40"/>
        <lane id="edgeW_I_3" index="3" disallow="pedestrian" speed="12.32" length="592.10" shape="592.10,711.20 0.00,711.20"/>
        <lane id="edgeW_I_4" index="4" disallow="pedestrian" speed="12.32" length="592.10" shape="592.10,708.00 0.00,708.00"/>
        <lane id="edgeW_I_5" index="5" disallow="pedestrian" speed="12.32" length="592.10" shape="592.10,704.80 0.00,704.80"/>
        <lane id="edgeW_I_6" index="6" disallow="pedestrian" speed="12.32" length="592.10" shape="592.10,701.60 0.00,701.60"/>
    </edge>
    <edge id="edgeW_O" from="juncW" to="juncMain" priority="78">
        <lane id="edgeW_O_0" index="0" allow="pedestrian" speed="21.59" length="592.10" shape="0.00,679.20 592.10,679.20"/>
        <lane id="edgeW_O_1" index="1" disallow="pedestrian" speed="21.59" length="592.10" shape="0.00,682.40 592.10,682.40"/>
        <lane id="edgeW_O_2" index="2" disallow="pedestrian" speed="21.59" length="592.10" shape="0.00,685.60 592.10,685.60"/>
        <lane id="edgeW_O_3" index="3" disallow="pedestrian" speed="21.59" length="592.10" shape="0.00,688.80 592.10,688.80"/>
        <lane id="edgeW_O_4" index="4" disallow="pedestrian" speed="21.59" length="592.10" shape="0.00,692.00 592.10,692.00"/>
        <lane id="edgeW_O_5" index="5" disallow="pedestrian" speed="21.59" length="592.10" shape="0.00,695.20 592.10,695.20"/>
        <lane id="edgeW_O_6" index="6" disallow="pedestrian" speed="21.59" length="592.10" shape="0.00,698.40 592.10,698.40"/>
    </edge>

    <tlLogic id="juncMain" type="static" programID="0" offset="0">
        <phase duration="30" state="rrggGGGGgrrrrggGGGGgrrGrGr"/>
        <phase duration="5"  state="rrggGGGGgrrrrggGGGGgrrrrrr"/>
        <phase duration="5"  state="rryyyyyyyrrrryyyyyyyrrrrrr"/>
        <phase duration="6"  state="rrrrrrrrrGGrrrrrrrrrGGrrrr"/>
        <phase duration="5"  state="rrrrrrrrryyrrrrrrrrryyrrrr"/>
        <phase duration="29" state="ggrrrrrrrrrggrrrrrrrrrrGrG"/>
        <phase duration="5"  state="ggrrrrrrrrrggrrrrrrrrrrrrr"/>
        <phase duration="5"  state="yyrrrrrrrrryyrrrrrrrrrrrrr"/>
    </tlLogic>

    <junction id="juncE" type="priority" x="1300.00" y="700.00" incLanes="edgeE_I_0 edgeE_I_1 edgeE_I_2 edgeE_I_3 edgeE_I_4 edgeE_I_5 edgeE_I_6" intLanes=":juncE_0_0" shape="1300.00,700.00 1300.00,677.60 1300.00,700.00">
        <request index="0" response="0" foes="0" cont="0"/>
    </junction>
    <junction id="juncMain" type="traffic_light" x="600.00" y="700.00" incLanes="edgeN_O_0 edgeN_O_1 edgeE_O_0 edgeE_O_1 edgeE_O_2 edgeE_O_3 edgeE_O_4 edgeE_O_5 edgeE_O_6 edgeS_O_0 edgeS_O_1 edgeW_O_0 edgeW_O_1 edgeW_O_2 edgeW_O_3 edgeW_O_4 edgeW_O_5 edgeW_O_6 :juncMain_w1_0 :juncMain_w2_0 :juncMain_w3_0 :juncMain_w0_0" intLanes=":juncMain_22_0 :juncMain_23_0 :juncMain_24_0 :juncMain_25_0 :juncMain_4_0 :juncMain_4_1 :juncMain_4_2 :juncMain_4_3 :juncMain_26_0 :juncMain_27_0 :juncMain_28_0 :juncMain_29_0 :juncMain_30_0 :juncMain_31_0 :juncMain_32_0 :juncMain_15_0 :juncMain_15_1 :juncMain_15_2 :juncMain_15_3 :juncMain_33_0 :juncMain_34_0 :juncMain_35_0 :juncMain_c0_0 :juncMain_c1_0 :juncMain_c2_0 :juncMain_c3_0" shape="593.60,723.90 606.40,723.90 606.57,723.07 606.77,722.77 607.07,722.57 607.44,722.44 607.90,722.40 607.90,677.60 607.07,677.43 606.77,677.23 606.57,676.93 606.44,676.56 606.40,676.10 593.60,676.10 593.43,676.93 593.23,677.23 592.93,677.43 592.56,677.56 592.10,677.60 592.10,722.40 592.93,722.57 593.23,722.77 593.43,723.07 593.56,723.44">
        <request index="0"  response="10010000000000000011110000" foes="10010000000000000011110000" cont="1"/>
        <request index="1"  response="10010000000000000011110000" foes="10010000000000000011110000" cont="1"/>
        <request index="2"  response="00110000000000000000000000" foes="00110110000000000000001000" cont="1"/>
        <request index="3"  response="00110000000000000000000100" foes="00110110000000000000000100" cont="1"/>
        <request index="4"  response="10100000000000000000000011" foes="10100110000000000000000011" cont="0"/>
        <request index="5"  response="10100000000000000000000011" foes="10100110000000000000000011" cont="0"/>
        <request index="6"  response="10100000000000000000000011" foes="10100110000000000000000011" cont="0"/>
        <request index="7"  response="10100000000000000000000011" foes="10100110000000000000000011" cont="0"/>
        <request index="8"  response="01100001111110001000000000" foes="01100001111110001000000000" cont="1"/>
        <request index="9"  response="01100001111110000000000000" foes="01100001111110000100000000" cont="1"/>
        <request index="10" response="00100000000000000000000000" foes="00100000000000000000000000" cont="1"/>
        <request index="11" response="01100001111000000000000000" foes="01100001111000000000000000" cont="1"/>
        <request index="12" response="01100001111000000000000000" foes="01100001111000000000000000" cont="1"/>
        <request index="13" response="11000000000000000000000000" foes="11000000000100001100000000" cont="1"/>
        <request index="14" response="11000000000010000000000000" foes="11000000000010001100000000" cont="1"/>
        <request index="15" response="10100000000001100000000000" foes="10100000000001101100000000" cont="0"/>
        <request index="16" response="10100000000001100000000000" foes="10100000000001101100000000" cont="0"/>
        <request index="17" response="10100000000001100000000000" foes="10100000000001101100000000" cont="0"/>
        <request index="18" response="10100000000001100000000000" foes="10100000000001101100000000" cont="0"/>
        <request index="19" response="10010100000000000011111100" foes="10010100000000000011111100" cont="1"/>
        <request index="20" response="10010000000000000011111100" foes="10010010000000000011111100" cont="1"/>
        <request index="21" response="10000000000000000000000000" foes="10000000000000000000000000" cont="1"/>
        <request index="22" response="00000000000000000000000000" foes="00000110000000000000001111" cont="0"/>
        <request index="23" response="00000000000000000000000000" foes="00000001111001111111111100" cont="0"/>
        <request index="24" response="00000000000000000000000000" foes="00000000000111101100000000" cont="0"/>
        <request index="25" response="00000000000000000000000000" foes="00001111111110000011110011" cont="0"/>
    </junction>
    <junction id="juncN" type="priority" x="600.00" y="1500.00" incLanes="edgeN_I_0 edgeN_I_1" intLanes=":juncN_0_0" shape="600.00,1500.00 606.40,1500.00 600.00,1500.00">
        <request index="0" response="0" foes="0" cont="0"/>
    </junction>
    <junction id="juncS" type="priority" x="600.00" y="0.00" incLanes="edgeS_I_0 edgeS_I_1" intLanes=":juncS_0_0" shape="600.00,0.00 593.60,0.00 600.00,0.00">
        <request index="0" response="0" foes="0" cont="0"/>
    </junction>
    <junction id="juncW" type="priority" x="0.00" y="700.00" incLanes="edgeW_I_0 edgeW_I_1 edgeW_I_2 edgeW_I_3 edgeW_I_4 edgeW_I_5 edgeW_I_6" intLanes=":juncW_0_0" shape="0.00,700.00 0.00,722.40 0.00,700.00">
        <request index="0" response="0" foes="0" cont="0"/>
    </junction>

    <junction id=":juncMain_22_0" type="internal" x="596.60" y="719.04" incLanes=":juncMain_0_0" intLanes=":juncMain_4_0 :juncMain_4_1 :juncMain_4_2 :juncMain_4_3 :juncMain_21_0 :juncMain_c0_0 :juncMain_c3_0"/>
    <junction id=":juncMain_23_0" type="internal" x="596.60" y="716.57" incLanes=":juncMain_0_1" intLanes=":juncMain_4_0 :juncMain_4_1 :juncMain_4_2 :juncMain_4_3 :juncMain_21_0 :juncMain_c0_0 :juncMain_c3_0"/>
    <junction id=":juncMain_24_0" type="internal" x="603.04" y="719.40" incLanes=":juncMain_2_0" intLanes=":juncMain_2_1 :juncMain_19_0 :juncMain_19_1 :juncMain_c0_0 :juncMain_c1_0"/>
    <junction id=":juncMain_25_0" type="internal" x="602.13" y="719.40" incLanes=":juncMain_2_1" intLanes=":juncMain_2_0 :juncMain_19_0 :juncMain_19_1 :juncMain_c0_0 :juncMain_c1_0"/>
    <junction id=":juncMain_26_0" type="internal" x="600.61" y="696.80" incLanes=":juncMain_8_0 edgeW_O_1 edgeW_O_2 edgeW_O_3 edgeW_O_4 edgeW_O_5" intLanes=":juncMain_8_1 :juncMain_13_0 :juncMain_13_1 :juncMain_15_0 :juncMain_15_1 :juncMain_15_2 :juncMain_15_3 :juncMain_c1_0 :juncMain_c2_0"/>
    <junction id=":juncMain_27_0" type="internal" x="601.75" y="696.80" incLanes=":juncMain_8_1 edgeW_O_1 edgeW_O_2 edgeW_O_3 edgeW_O_4 edgeW_O_5" intLanes=":juncMain_8_0 :juncMain_13_0 :juncMain_13_1 :juncMain_15_0 :juncMain_15_1 :juncMain_15_2 :juncMain_15_3 :juncMain_c1_0 :juncMain_c2_0"/>
    <junction id=":juncMain_28_0" type="internal" x="606.30" y="700.00" incLanes=":juncMain_10_0 edgeS_O_1 edgeW_O_2 edgeW_O_3 edgeW_O_4 edgeW_O_5" intLanes=":juncMain_11_0 :juncMain_11_1 :juncMain_15_0 :juncMain_15_1 :juncMain_15_2 :juncMain_15_3 :juncMain_c1_0 :juncMain_c1_0"/>
    <junction id=":juncMain_29_0" type="internal" x="603.40" y="680.96" incLanes=":juncMain_11_0" intLanes=":juncMain_10_0 :juncMain_15_0 :juncMain_15_1 :juncMain_15_2 :juncMain_15_3 :juncMain_c1_0 :juncMain_c2_0"/>
    <junction id=":juncMain_30_0" type="internal" x="603.40" y="683.43" incLanes=":juncMain_11_1" intLanes=":juncMain_10_0 :juncMain_15_0 :juncMain_15_1 :juncMain_15_2 :juncMain_15_3 :juncMain_c1_0 :juncMain_c2_0"/>
    <junction id=":juncMain_31_0" type="internal" x="596.96" y="680.60" incLanes=":juncMain_13_0" intLanes=":juncMain_8_0 :juncMain_8_1 :juncMain_13_1 :juncMain_c2_0 :juncMain_c3_0"/>
    <junction id=":juncMain_32_0" type="internal" x="597.87" y="680.60" incLanes=":juncMain_13_1" intLanes=":juncMain_8_0 :juncMain_8_1 :juncMain_13_0 :juncMain_c2_0 :juncMain_c3_0"/>
    <junction id=":juncMain_33_0" type="internal" x="599.39" y="703.20" incLanes=":juncMain_19_0 edgeE_O_1 edgeE_O_2 edgeE_O_3 edgeE_O_4 edgeE_O_5" intLanes=":juncMain_2_0 :juncMain_2_1 :juncMain_4_0 :juncMain_4_1 :juncMain_4_2 :juncMain_4_3 :juncMain_19_1 :juncMain_c0_0 :juncMain_c3_0"/>
    <junction id=":juncMain_34_0" type="internal" x="598.25" y="703.20" incLanes=":juncMain_19_1 edgeE_O_1 edgeE_O_2 edgeE_O_3 edgeE_O_4 edgeE_O_5" intLanes=":juncMain_2_0 :juncMain_2_1 :juncMain_4_0 :juncMain_4_1 :juncMain_4_2 :juncMain_4_3 :juncMain_19_0 :juncMain_c0_0 :juncMain_c3_0"/>
    <junction id=":juncMain_35_0" type="internal" x="593.70" y="700.00" incLanes=":juncMain_21_0 edgeE_O_2 edgeE_O_3 edgeE_O_4 edgeE_O_5 edgeN_O_1" intLanes=":juncMain_0_0 :juncMain_0_1 :juncMain_4_0 :juncMain_4_1 :juncMain_4_2 :juncMain_4_3 :juncMain_c3_0 :juncMain_c3_0"/>

    <connection from="edgeE_I" to="edgeE_O" fromLane="6" toLane="6" via=":juncE_0_0" dir="t" state="M"/>
    <connection from="edgeE_O" to="edgeN_I" fromLane="1" toLane="1" via=":juncMain_2_0" tl="juncMain" linkIndex="2" dir="r" state="o"/>
    <connection from="edgeE_O" to="edgeN_I" fromLane="2" toLane="1" via=":juncMain_2_1" tl="juncMain" linkIndex="3" dir="r" state="o"/>
    <connection from="edgeE_O" to="edgeW_I" fromLane="2" toLane="2" via=":juncMain_4_0" tl="juncMain" linkIndex="4" dir="s" state="o"/>
    <connection from="edgeE_O" to="edgeW_I" fromLane="3" toLane="3" via=":juncMain_4_1" tl="juncMain" linkIndex="5" dir="s" state="o"/>
    <connection from="edgeE_O" to="edgeW_I" fromLane="4" toLane="4" via=":juncMain_4_2" tl="juncMain" linkIndex="6" dir="s" state="o"/>
    <connection from="edgeE_O" to="edgeW_I" fromLane="5" toLane="5" via=":juncMain_4_3" tl="juncMain" linkIndex="7" dir="s" state="o"/>
    <connection from="edgeE_O" to="edgeS_I" fromLane="5" toLane="1" via=":juncMain_8_0" tl="juncMain" linkIndex="8" dir="l" state="o"/>
    <connection from="edgeE_O" to="edgeS_I" fromLane="6" toLane="1" via=":juncMain_8_1" tl="juncMain" linkIndex="9" dir="l" state="o"/>
    <connection from="edgeE_O" to="edgeE_I" fromLane="6" toLane="6" via=":juncMain_10_0" tl="juncMain" linkIndex="10" dir="t" state="o"/>
    <connection from="edgeN_I" to="edgeN_O" fromLane="1" toLane="1" via=":juncN_0_0" dir="t" state="M"/>
    <connection from="edgeN_O" to="edgeW_I" fromLane="1" toLane="1" via=":juncMain_0_0" tl="juncMain" linkIndex="0" dir="r" state="o"/>
    <connection from="edgeN_O" to="edgeW_I" fromLane="1" toLane="2" via=":juncMain_0_1" tl="juncMain" linkIndex="1" dir="r" state="o"/>
    <connection from="edgeS_I" to="edgeS_O" fromLane="1" toLane="1" via=":juncS_0_0" dir="t" state="M"/>
    <connection from="edgeS_O" to="edgeE_I" fromLane="1" toLane="1" via=":juncMain_11_0" tl="juncMain" linkIndex="11" dir="r" state="o"/>
    <connection from="edgeS_O" to="edgeE_I" fromLane="1" toLane="2" via=":juncMain_11_1" tl="juncMain" linkIndex="12" dir="r" state="o"/>
    <connection from="edgeW_I" to="edgeW_O" fromLane="6" toLane="6" via=":juncW_0_0" dir="t" state="M"/>
    <connection from="edgeW_O" to="edgeS_I" fromLane="1" toLane="1" via=":juncMain_13_0" tl="juncMain" linkIndex="13" dir="r" state="o"/>
    <connection from="edgeW_O" to="edgeS_I" fromLane="2" toLane="1" via=":juncMain_13_1" tl="juncMain" linkIndex="14" dir="r" state="o"/>
    <connection from="edgeW_O" to="edgeE_I" fromLane="2" toLane="2" via=":juncMain_15_0" tl="juncMain" linkIndex="15" dir="s" state="o"/>
    <connection from="edgeW_O" to="edgeE_I" fromLane="3" toLane="3" via=":juncMain_15_1" tl="juncMain" linkIndex="16" dir="s" state="o"/>
    <connection from="edgeW_O" to="edgeE_I" fromLane="4" toLane="4" via=":juncMain_15_2" tl="juncMain" linkIndex="17" dir="s" state="o"/>
    <connection from="edgeW_O" to="edgeE_I" fromLane="5" toLane="5" via=":juncMain_15_3" tl="juncMain" linkIndex="18" dir="s" state="o"/>
    <connection from="edgeW_O" to="edgeN_I" fromLane="5" toLane="1" via=":juncMain_19_0" tl="juncMain" linkIndex="19" dir="l" state="o"/>
    <connection from="edgeW_O" to="edgeN_I" fromLane="6" toLane="1" via=":juncMain_19_1" tl="juncMain" linkIndex="20" dir="l" state="o"/>
    <connection from="edgeW_O" to="edgeW_I" fromLane="6" toLane="6" via=":juncMain_21_0" tl="juncMain" linkIndex="21" dir="t" state="o"/>

    <connection from=":juncE_0" to="edgeE_O" fromLane="0" toLane="6" dir="t" state="M"/>
    <connection from=":juncMain_0" to="edgeW_I" fromLane="0" toLane="1" via=":juncMain_22_0" dir="r" state="m"/>
    <connection from=":juncMain_22" to="edgeW_I" fromLane="0" toLane="1" dir="r" state="M"/>
    <connection from=":juncMain_0" to="edgeW_I" fromLane="1" toLane="2" via=":juncMain_23_0" dir="r" state="m"/>
    <connection from=":juncMain_23" to="edgeW_I" fromLane="0" toLane="2" dir="r" state="M"/>
    <connection from=":juncMain_2" to="edgeN_I" fromLane="0" toLane="1" via=":juncMain_24_0" dir="r" state="m"/>