<routes>
   <personFlow id="pRegN" begin="0" end="3000" personsPerHour="254.507080">
        <walk edges="edgeN_O edgeS_I" speed="1.840458"/>
    </personFlow>
   <personFlow id="pRegS" begin="0" end="3000" personsPerHour="674.117754">
        <walk edges="edgeS_O edgeN_I" speed="1.662607"/>
    </personFlow>
   <personFlow id="pRegW" begin="0" end="3000" personsPerHour="379.882977">
        <walk edges="edgeW_O edgeE_I" speed="1.469411"/>
    </personFlow>
   <personFlow id="pRegE" begin="0" end="3000" personsPerHour="690.248342">
        <walk edges="edgeE_O edgeW_I" speed="1.573480"/>
    </personFlow>
   <personFlow id="pOppN" begin="0" end="3000" personsPerHour="777.906539" departPos="800.000000">
        <walk edges="edgeN_I edgeS_O" speed="1.314205"/>
    </personFlow>
   <personFlow id="pOppS" begin="0" end="3000" personsPerHour="628.670217" departPos="700.000000">
        <walk edges="edgeS_I edgeN_O" speed="1.574967"/>
    </personFlow>
   <personFlow id="pOppW" begin="0" end="3000" personsPerHour="92.574545" departPos="600.000000">
        <walk edges="edgeW_I edgeE_O" speed="1.191007"/>
    </personFlow>
   <personFlow id="pOppE" begin="0" end="3000" personsPerHour="884.119460" departPos="700.000000">
        <walk edges="edgeE_I edgeW_O" speed="1.797107"/>
    </personFlow>

    <route id="edgeN_edgeN" edges="edgeN_O edgeN_I" />
    <route id="edgeN_edgeS" edges="edgeN_O edgeS_I" />
    <route id="edgeN_edgeW" edges="edgeN_O edgeW_I" />
    <route id="edgeN_edgeE" edges="edgeN_O edgeE_I" />
    <route id="edgeS_edgeN" edges="edgeS_O edgeN_I" />
    <route id="edgeS_edgeS" edges="edgeS_O edgeS_I" />
    <route id="edgeS_edgeW" edges="edgeS_O edgeW_I" />
    <route id="edgeS_edgeE" edges="edgeS_O edgeE_I" />
    <route id="edgeW_edgeN" edges="edgeW_O edgeN_I" />
    <route id="edgeW_edgeS" edges="edgeW_O edgeS_I" />
    <route id="edgeW_edgeW" edges="edgeW_O edgeW_I" />
    <route id="edgeW_edgeE" edges="edgeW_O edgeE_I" />
    <route id="edgeE_edgeN" edges="edgeE_O edgeN_I" />
    <route id="edgeE_edgeS" edges="edgeE_O edgeS_I" />
    <route id="edgeE_edgeW" edges="edgeE_O edgeW_I" />
    <route id="edgeE_edgeE" edges="edgeE_O edgeE_I" />
    
   <vType id="vehicleS_0" length="4.298000" accel="3.449000" decel="5.538000" sigma="0.5" minGap="2.384206" maxSpeed="134.308540" guiShape="passenger" />
   <vehicle id="rightS_0" type="vehicleS_0" route="edgeS_edgeE" depart="0" departLane="1" />

   <vType id="vehicleW_1" length="4.066000" accel="2.564000" decel="5.312000" sigma="0.5" minGap="2.384206" maxSpeed="134.308540" guiShape="passenger" />
   <vehicle id="leftW_1" type="vehicleW_1" route="edgeW_edgeN" depart="0" departLane="5" />

   <vType id="vehicleW_2" length="5.457000" accel="3.488000" decel="3.974000" sigma="0.5" minGap="2.384206" maxSpeed="134.308540" guiShape="passenger" />
   <vehicle id="straightW_2" type="vehicleW_2" route="edgeW_edgeE" depart="1" departLane="5" />

   <vType id="vehicleW_3" length="4.071000" accel="3.644000" decel="5.317000" sigma="0.5" minGap="2.384206" maxSpeed="134.308540" guiShape="passenger" />
   <vehicle id="straightW_3" type="vehicleW_3" route="edgeW_edgeE" depart="2" departLane="2" />

   <vType id="vehicleW_4" length="5.385000" accel="3.242000" decel="6.097000" sigma="0.5" minGap="2.384206" maxSpeed="134.308540" guiShape="passenger" />
   <vehicle id="straightW_4" type="vehicleW_4" route="edgeW_edgeE" depart="3" departLane="3" />

   <vType id="vehicleN_5" length="4.417000" accel="2.295000" decel="4.195000" sigma="0.5" minGap="2.384206" maxSpeed="134.308540" guiShape="passenger" />
   <vehicle id="rightN_5" type="vehicleN_5" route="edgeN_edgeW" depart="4" departLane="1" />

   <vType id="vehicleW_6" length="4.189000" accel="2.779000" decel="5.518000" sigma="0.5" minGap="2.384206" maxSpeed="134.308540" guiShape="passenger" />
   <vehicle id="rightW_6" type="vehicleW_6" route="edgeW_edgeS" depart="4" departLane="1" />

   <vType id="vehicleW_7" length="5.672000" accel="3.279000" decel="5.176000" sigma="0.5" minGap="2.384206" maxSpeed="134.308540" guiShape="passenger" />
   <vehicle id="straightW_7" type="vehicleW_7" route="edgeW_edgeE" depart="5" departLane="4" />

   <vType id="vehicleW_8" length="4.378000" accel="2.525000" decel="6.343000" sigma="0.5" minGap="2.384206" maxSpeed="134.308540" guiShape="passenger" />
   <vehicle id="straightW_8" type="vehicleW_8" route="edgeW_edgeE" depart="6" departLane="4" />

   <vType id="vehicleE_9" length="5.234000" accel="3.102000" decel="5.751000" sigma="0.5" minGap="2.384206" maxSpeed="134.308540" guiShape="passenger" />
   <vehicle id="straightE_9" type="vehicleE_9" route="edgeE_edgeW" depart="7" departLane="5" />

   <vType id="vehicleW_10" length="4.811000" accel="2.314000" decel="3.634000" sigma="0.5" minGap="2.384206" maxSpeed="134.308540" guiShape="passenger" />
   <vehicle id="uturnW_10" type="vehicleW_10" route="edgeW_edgeW" depart="8" departLane="6" />

   <vType id="vehicleE_11" length="5.318000" accel="2.897000" decel="3.683000" sigma="0.5" minGap="2.384206" maxSpeed="134.308540" guiShape="passenger" />
   <vehicle id="straightE_11" type="vehicleE_11" route="edgeE_edgeW" depart="8" departLane="5" />

   <vType id="vehicleW_12" length="5.588000" accel="3.350000" decel="3.837000" sigma="0.5" minGap="2.384206" maxSpeed="134.308540" guiShape="passenger" />
   <vehicle id="straightW_12" type="vehicleW_12" route="edgeW_edgeE" depart="9" departLane="4" />

   <vType id="vehicleW_13" length="5.193000" accel="3.419000" decel="6.431000" sigma="0.5" minGap="2.384206" maxSpeed="134.308540" guiShape="passenger" />
   <vehicle id="leftW_13" type="vehicleW_13" route="edgeW_edgeN" depart="10" departLane="5" />

   <vType id="vehicleN_14" length="5.407000" accel="3.047000" decel="4.093000" sigma="0.5" minGap="2.384206" maxSpeed="134.308540" guiShape="passenger" />
   <vehicle id="rightN_14" type="vehicleN_14" route="edgeN_edgeW" depart="11" departLane="1" />

   <vType id="vehicleW_15" length="4.849000" accel="2.156000" decel="4.471000" sigma="0.5" minGap="2.384206" maxSpeed="134.308540" guiShape="passenger" />
   <vehicle id="rightW_15" type="vehicleW_15" route="edgeW_edgeS" depart="11" departLane="1" />

   <vType id="vehicleE_16" length="5.665000" accel="3.572000" decel="4.215000" sigma="0.5" minGap="2.384206" maxSpeed="134.308540" guiShape="passenger" />
   <vehicle id="straightE_16" type="vehicleE_16" route="edgeE_edgeW" depart="11" departLane="3" />

   <vType id="vehicleW_17" length="4.022000" accel="3.491000" decel="5.807000" sigma="0.5" minGap="2.384206" maxSpeed="134.308540" guiShape="passenger" />
   <vehicle id="straightW_17" type="vehicleW_17" route="edgeW_edgeE" depart="12" departLane="3" />

   <vType id="vehicleW_18" length="5.627000" accel="3.787000" decel="5.776000" sigma="0.5" minGap="2.384206" maxSpeed="134.308540" guiShape="passenger" />
   <vehicle id="straightW_18" type="vehicleW_18" route="edgeW_edgeE" depart="13" departLane="3" />

   <vType id="vehicleW_19" length="4.707000" accel="2.590000" decel="3.685000" sigma="0.5" minGap="2.384206" maxSpeed="134.308540" guiShape="passenger" />
   <vehicle id="rightW_19" type="vehicleW_19" route="edgeW_edgeS" depart="14" departLane="1" />

   <vType id="vehicleW_20" length="4.308000" accel="3.746000" decel="6.091000" sigma="0.5" minGap="2.384206" maxSpeed="134.308540" guiShape="passenger" />
   <vehicle id="straightW_20" type="vehicleW_20" route="edgeW_edgeE" depart="15" departLane="2" />

   <vType id="vehicleW_21" length="5.480000" accel="3.167000" decel="4.226000" sigma="0.5" minGap="2.384206" maxSpeed="134.308540" guiShape="passenger" />
   <vehicle id="straightW_21" type="vehicleW_21" route="edgeW_edgeE" depart="16" departLane="5" />

   <vType id="vehicleS_22" length="4.657000" accel="2.975000" decel="5.696000" sigma="0.5" minGap="2.384206" maxSpeed="134.308540" guiShape="passenger" />
   <vehicle id="rightS_22" type="vehicleS_22" route="edgeS_edgeE" depart="17" departLane="1" />

   <vType id="vehicleW_23" length="5.333000" accel="2.347000" decel="4.071000" sigma="0.5" minGap="2.384206" maxSpeed="134.308540" guiShape="passenger" />
   <vehicle id="straightW_23" type="vehicleW_23" route="edgeW_edgeE" depart="17" departLane="5" />

   <vType id="vehicleE_24" length="4.727000" accel="3.691000" decel="3.719000" sigma="0.5" minGap="2.384206" maxSpeed="134.308540" guiShape="passenger" />
   <vehicle id="straightE_24" type="vehicleE_24" route="edgeE_edgeW" depart="17" departLane="2" />

   <vType id="vehicleN_25" length="5.397000" accel="3.857000" decel="6.293000" sigma="0.5" minGap="2.384206" maxSpeed="134.308540" guiShape="passenger" />
   <vehicle id="rightN_25" type="vehicleN_25" route="edgeN_edgeW" depart="18" departLane="1" />

   <vType id="vehicleW_26" length="4.617000" accel="2.258000" decel="4.637000" sigma="0.5" minGap="2.384206" maxSpeed="134.308540" guiShape="passenger" />
   <vehicle id="straightW_26" type="vehicleW_26" route="edgeW_edgeE" depart="18" departLane="5" />

   <vType id="vehicleW_27" length="5.683000" accel="3.131000" decel="5.664000" sigma="0.5" minGap="2.384206" maxSpeed="134.308540" guiShape="passenger" />
   <vehicle id="uturnW_27" type="vehicleW_27" route="edgeW_edgeW" depart="19" departLane="6" />

   <vType id="vehicleE_28" length="5.635000" accel="3.172000" decel="5.131000" sigma="0.5" minGap="2.384206" maxSpeed="134.308540" guiShape="passenger" />
   <vehicle id="straightE_28" type="vehicleE_28" route="edgeE_edgeW" depart="19" departLane="4" />

   <vType id="vehicleN_29" length="4.800000" accel="3.653000" decel="3.967000" sigma="0.5" minGap="2.384206" maxSpeed="134.308540" guiShape="passenger" />
   <vehicle id="rightN_29" type="vehicleN_29" route="edgeN_edgeW" depart="20" departLane="1" />

   <vType id="vehicleW_30" length="5.443000" accel="2.864000" decel="6.339000" sigma="0.5" minGap="2.384206" maxSpeed="134.308540" guiShape="passenger" />
   <vehicle id="leftW_30" type="vehicleW_30" route="edgeW_edgeN" depart="20" departLane="5" />

   <vType id="vehicleN_31" length="5.077000" accel="3.148000" decel="4.448000" sigma="0.5" minGap="2.384206" maxSpeed="134.308540" guiShape="passenger" />
   <vehicle id="rightN_31" type="vehicleN_31" route="edgeN_edgeW" depart="21" departLane="1" />

   <vType id="vehicleW_32" length="5.246000" accel="2.282000" decel="4.877000" sigma="0.5" minGap="2.384206" maxSpeed="134.308540" guiShape="passenger" />
   <vehicle id="straightW_32" type="vehicleW_32" route="edgeW_edgeE" depart="22" departLane="2" />

   <vType id="vehicleE_33" length="4.373000" accel="3.795000" decel="6.155000" sigma="0.5" minGap="2.384206" maxSpeed="134.308540" guiShape="passenger" />
   <vehicle id="straightE_33" type="vehicleE_33" route="edgeE_edgeW" depart="22" departLane="3" />

   <vType id="vehicleE_34" length="4.435000" accel="3.320000" decel="6.331000" sigma="0.5" minGap="2.384206" maxSpeed="134.308540" guiShape="passenger" />
   <vehicle id="rightE_34" type="vehicleE_34" route="edgeE_edgeN" depart="24" departLane="1" />

   <vType id="vehicleE_35" length="4.275000" accel="2.757000" decel="5.571000" sigma="0.5" minGap="2.384206" maxSpeed="134.308540" guiShape="passenger" />
   <vehicle id="straightE_35" type="vehicleE_35" route="edgeE_edgeW" depart="25" departLane="4" />

   <vType id="vehicleE_36" length="5.385000" accel="2.232000" decel="4.500000" sigma="0.5" minGap="2.384206" maxSpeed="134.308540" guiShape="passenger" />
   <vehicle id="straightE_36" type="vehicleE_36" route="edgeE_edgeW" depart="26" departLane="3" />

   <vType id="vehicleS_37" length="5.481000" accel="3.743000" decel="5.141000" sigma="0.5" minGap="2.384206" maxSpeed="134.308540" guiShape="passenger" />
   <vehicle id="rightS_37" type="vehicleS_37" route="edgeS_edgeE" depart="28" departLane="1" />

   <vType id="vehicleW_38" length="4.126000" accel="2.696000" decel="6.210000" sigma="0.5" minGap="2.384206" maxSpeed="134.308540" guiShape="passenger" />
   <vehicle id="straightW_38" type="vehicleW_38" route="edgeW_edgeE" depart="28" departLane="2" />

   <vType id="vehicleW_39" length="5.483000" accel="2.869000" decel="5.368000" sigma="0.5" minGap="2.384206" maxSpeed="134.308540" guiShape="passenger" />
   <vehicle id="rightW_39" type="vehicleW_39" route="edgeW_edgeS" depart="29" departLane="1" />

   <vType id="vehicleE_40" length="4.219000" accel="3.779000" decel="5.858000" sigma="0.5" minGap="2.384206" maxSpeed="134.308540" guiShape="passenger" />
   <vehicle id="straightE_40" type="vehicleE_40" route="edgeE_edgeW" depart="30" departLane="5" />

   <vType id="vehicleS_41" length="5.437000" accel="2.546000" decel="5.961000" sigma="0.5" minGap="2.384206" maxSpeed="134.308540" guiShape="passenger" />
   <vehicle id="rightS_41" type="vehicleS_41" route="edgeS_edgeE" depart="32" departLane="1" />

   <vType id="vehicleW_42" length="5.460000" accel="2.546000" decel="5.487000" sigma="0.5" minGap="2.384206" maxSpeed="134.308540" guiShape="passenger" />
   <vehicle id="rightW_42" type="vehicleW_42" route="edgeW_edgeS" depart="32" departLane="2" />

   <vType id="vehicleW_43" length="4.614000" accel="3.879000" decel="5.113000" sigma="0.5" minGap="2.384206" maxSpeed="134.308540" guiShape="passenger" />
   <vehicle id="straightW_43" type="vehicleW_43" route="edgeW_edgeE" depart="33" departLane="2" />

   <vType id="vehicleE_44" length="4.218000" accel="3.846000" decel="4.294000" sigma="0.5" minGap="2.384206" maxSpeed="134.308540" guiShape="passenger" />
   <vehicle id="uturnE_44" type="vehicleE_44" route="edgeE_edgeE" depart="33" departLane="6" />

   <vType id="vehicleN_45" length="5.204000" accel="2.706000" decel="5.325000" sigma="0.5" minGap="2.384206" maxSpeed="134.308540" guiShape="passenger" />
   <vehicle id="rightN_45" type="vehicleN_45" route="edgeN_edgeW" depart="34" departLane="1" />

   <vType id="vehicleW_46" length="5.169000" accel="2.158000" decel="6.291000" sigma="0.5" minGap="2.384206" maxSpeed="134.308540" guiShape="passenger" />
   <vehicle id="straightW_46" type="vehicleW_46" route="edgeW_edgeE" depart="34" departLane="3" />

   <vType id="vehicleN_47" length="4.490000" accel="2.706000" decel="6.056000" sigma="0.5" minGap="2.384206" maxSpeed="134.308540" guiShape="passenger" />
   <vehicle id="rightN_47" type="vehicleN_47" route="edgeN_edgeW" depart="35" departLane="1" />

   <vType id="vehicleW_48" length="4.578000" accel="3.469000" decel="4.017000" sigma="0.5" minGap="2.384206" maxSpeed="134.308540" guiShape="passenger" />
   <vehicle id="straightW_48" type="vehicleW_48" route="edgeW_edgeE" depart="36" departLane="4" />

   <vType id="vehicleW_49" length="4.986000" accel="2.721000" decel="4.827000" sigma="0.5" minGap="2.384206" maxSpeed="134.308540" guiShape="passenger" />
   <vehicle id="rightW_49" type="vehicleW_49" route="edgeW_edgeS" depart="37" departLane="1" />

   <vType id="vehicleE_50" length="4.319000" accel="2.700000" decel="5.931000" sigma="0.5" minGap="2.384206" maxSpeed="134.308540" guiShape="passenger" />
   <vehicle id="uturnE_50" type="vehicleE_50" route="edgeE_edgeE" depart="39" departLane="6" />

   <vType id="vehicleS_51" length="4.994000" accel="3.505000" decel="4.869000" sigma="0.5" minGap="2.384206" maxSpeed="134.308540" guiShape="passenger" />
   <vehicle id="rightS_51" type="vehicleS_51" route="edgeS_edgeE" depart="40" departLane="1" />

   <vType id="vehicleW_52" length="5.543000" accel="2.368000" decel="3.894000" sigma="0.5" minGap="2.384206" maxSpeed="134.308540" guiShape="passenger" />
   <vehicle id="straightW_52" type="vehicleW_52" route="edgeW_edgeE" depart="43" departLane="5" />

   <vType id="vehicleW_53" length="4.880000" accel="3.731000" decel="5.740000" sigma="0.5" minGap="2.384206" maxSpeed="134.308540" guiShape="passenger" />
   <vehicle id="rightW_53" type="vehicleW_53" route="edgeW_edgeS" depart="45" departLane="2" />

   <vType id="vehicleW_54" length="4.767000" accel="2.575000" decel="4.822000" sigma="0.5" minGap="2.384206" maxSpeed="134.308540" guiShape="passenger" />
   <vehicle id="rightW_54" type="vehicleW_54" route="edgeW_edgeS" depart="46" departLane="2" />

   <vType id="vehicleW_55" length="4.585000" accel="2.423000" decel="4.138000" sigma="0.5" minGap="2.384206" maxSpeed="134.308540" guiShape="passenger" />
   <vehicle id="straightW_55" type="vehicleW_55" route="edgeW_edgeE" depart="47" departLane="5" />

   <vType id="vehicleW_56" length="5.520000" accel="3.181000" decel="5.595000" sigma="0.5" minGap="2.384206" maxSpeed="134.308540" guiShape="passenger" />
   <vehicle id="straightW_56" type="vehicleW_56" route="edgeW_edgeE" depart="48" departLane="5" />

   <vType id="vehicleW_57" length="5.396000" accel="3.100000" decel="5.713000" sigma="0.5" minGap="2.384206" maxSpeed="134.308540" guiShape="passenger" />
   <vehicle id="rightW_57" type="vehicleW_57" route="edgeW_edgeS" depart="49" departLane="1" />

   <vType id="vehicleW_58" length="5.329000" accel="3.427000" decel="6.033000" sigma="0.5" minGap="2.384206" maxSpeed="134.308540" guiShape="passenger" />
   <vehicle id="straightW_58" type="vehicleW_58" route="edgeW_edgeE" depart="50" departLane="3" />

   <vType id="vehicleW_59" length="4.048000" accel="2.908000" decel="6.113000" sigma="0.5" minGap="2.384206" maxSpeed="134.308540" guiShape="passenger" />
   <vehicle id="straightW_59" type="vehicleW_59" route="edgeW_edgeE" depart="51" departLane="3" />

   <vType id="vehicleE_60" length="4.277000" accel="2.729000" decel="5.794000" sigma="0.5" minGap="2.384206" maxSpeed="134.308540" guiShape="passenger" />
   <vehicle id="straightE_60" type="vehicleE_60" route="edgeE_edgeW" depart="51" departLane="5" />

   <vType id="vehicleW_61" length="4.741000" accel="3.471000" decel="3.649000" sigma="0.5" minGap="2.384206" maxSpeed="134.308540" guiShape="passenger" />
   <vehicle id="rightW_61" type="vehicleW_61" route="edgeW_edgeS" depart="52" departLane="2" />

   <vType id="vehicleN_62" length="3.970000" accel="2.209000" decel="4.239000" sigma="0.5" minGap="2.384206" maxSpeed="134.308540" guiShape="passenger" />
   <vehicle id="rightN_62" type="vehicleN_62" route="edgeN_edgeW" depart="53" departLane="1" />

   <vType id="vehicleW_63" length="4.103000" accel="3.820000" decel="4.898000" sigma="0.5" minGap="2.384206" maxSpeed="134.308540" guiShape="passenger" />
   <vehicle id="straightW_63" type="vehicleW_63" route="edgeW_edgeE" depart="53" departLane="4" />

   <vType id="vehicleE_64" length="5.628000" accel="2.345000" decel="3.569000" sigma="0.5" minGap="2.384206" maxSpeed="134.308540" guiShape="passenger" />
   <vehicle id="rightE_64" type="vehicleE_64" route="edgeE_edgeN" depart="54" departLane="2" />

   <vType id="vehicleW_65" length="4.253000" accel="3.195000" decel="6.003000" sigma="0.5" minGap="2.384206" maxSpeed="134.308540" guiShape="passenger" />
   <vehicle id="uturnW_65" type="vehicleW_65" route="edgeW_edgeW" depart="55" departLane="6" />

   <vType id="vehicleW_66" length="5.084000" accel="2.276000" decel="5.450000" sigma="0.5" minGap="2.384206" maxSpeed="134.308540" guiShape="passenger" />
   <vehicle id="straightW_66" type="vehicleW_66" route="edgeW_edgeE" depart="57" departLane="2" />

   <vType id="vehicleS_67" length="5.038000" accel="3.611000" decel="5.630000" sigma="0.5" minGap="2.384206" maxSpeed="134.308540" guiShape="passenger" />
   <vehicle id="rightS_67" type="vehicleS_67" route="edgeS_edgeE" depart="58" departLane="1" />

   <vType id="vehicleW_68" length="5.064000" accel="3.237000" decel="6.273000" sigma="0.5" minGap="2.384206" maxSpeed="134.308540" guiShape="passenger" />
   <vehicle id="straightW_68" type="vehicleW_68" route="edgeW_edgeE" depart="58" departLane="5" />

   <vType id="vehicleW_69" length="5.574000" accel="2.645000" decel="4.855000" sigma="0.5" minGap="2.384206" maxSpeed="134.308540" guiShape="passenger" />
   <vehicle id="straightW_69" type="vehicleW_69" route="edgeW_edgeE" depart="59" departLane="5" />

   <vType id="vehicleW_70" length="4.772000" accel="2.778000" decel="4.272000" sigma="0.5" minGap="2.384206" maxSpeed="134.308540" guiShape="passenger" />
   <vehicle id="straightW_70" type="vehicleW_70" route="edgeW_edgeE" depart="60" departLane="4" />

   <vType id="vehicleW_71" length="4.051000" accel="3.420000" decel="4.969000" sigma="0.5" minGap="2.384206" maxSpeed="134.308540" guiShape="passenger" />
   <vehicle id="uturnW_71" type="vehicleW_71" route="edgeW_edgeW" depart="61" departLane="6" />

   <vType id="vehicleW_72" length="4.065000" accel="2.544000" decel="5.584000" sigma="0.5" minGap="2.384206" maxSpeed="134.308540" guiShape="passenger" />
   <vehicle id="rightW_72" type="vehicleW_72" route="edgeW_edgeS" depart="62" departLane="2" />

   <vType id="vehicleW_73" length="4.885000" accel="2.773000" decel="4.863000" sigma="0.5" minGap="2.384206" maxSpeed="134.308540" guiShape="passenger" />
   <vehicle id="uturnW_73" type="vehicleW_73" route="edgeW_edgeW" depart="63" departLane="6" />

   <vType id="vehicleW_74" length="5.603000" accel="3.367000" decel="4.070000" sigma="0.5" minGap="2.384206" maxSpeed="134.308540" guiShape="passenger" />
   <vehicle id="rightW_74" type="vehicleW_74" route="edgeW_edgeS" depart="64" departLane="2" />

   <vType id="vehicleW_75" length="5.391000" accel="2.675000" decel="4.583000" sigma="0.5" minGap="2.384206" maxSpeed="134.308540" guiShape="passenger" />
   <vehicle id="uturnW_75" type="vehicleW_75" route="edgeW_edgeW" depart="65" departLane="6" />

   <vType id="vehicleW_76" length="4.422000" accel="3.814000" decel="5.420000" sigma="0.5" minGap="2.384206" maxSpeed="134.308540" guiShape="passenger" />
   <vehicle id="leftW_76" type="vehicleW_76" route="edgeW_edgeN" depart="66" departLane="6" />

   <vType id="vehicleE_77" length="4.408000" accel="2.996000" decel="4.522000" sigma="0.5" minGap="2.384206" maxSpeed="134.308540" guiShape="passenger" />
   <vehicle id="leftE_77" type="vehicleE_77" route="edgeE_edgeS" depart="66" departLane="5" />

   <vType id="vehicleW_78" length="4.780000" accel="3.169000" decel="5.567000" sigma="0.5" minGap="2.384206" maxSpeed="134.308540" guiShape="passenger" />
   <vehicle id="leftW_78" type="vehicleW_78" route="edgeW_edgeN" depart="67" departLane="5" />

   <vType id="vehicleE_79" length="4.443000" accel="3.901000" decel="3.849000" sigma="0.5" minGap="2.384206" maxSpeed="134.308540" guiShape="passenger" />
   <vehicle id="straightE_79" type="vehicleE_79" route="edgeE_edgeW" depart="67" departLane="5" />

   <vType id="vehicleW_80" length="4.706000" accel="2.933000" decel="6.093000" sigma="0.5" minGap="2.384206" maxSpeed="134.308540" guiShape="passenger" />
   <vehicle id="straightW_80" type="vehicleW_80" route="edgeW_edgeE" depart="68" departLane="5" />

   <vType id="vehicleE_81" length="4.032000" accel="2.159000" decel="4.854000" sigma="0.5" minGap="2.384206" maxSpeed="134.308540" guiShape="passenger" />
   <vehicle id="straightE_81" type="vehicleE_81" route="edgeE_edgeW" depart="70" departLane="5" />

   <vType id="vehicleN_82" length="4.449000" accel="3.471000" decel="5.213000" sigma="0.5" minGap="2.384206" maxSpeed="134.308540" guiShape="passenger" />
   <vehicle id="rightN_82" type="vehicleN_82" route="edgeN_edgeW" depart="75" departLane="1" />

   <vType id="vehicleW_83" length="4.620000" accel="2.633000" decel="5.124000" sigma="0.5" minGap="2.384206" maxSpeed="134.308540" guiShape="passenger" />
   <vehicle id="straightW_83" type="vehicleW_83" route="edgeW_edgeE" depart="75" departLane="5" />

   <vType id="vehicleE_84" length="4.673000" accel="2.721000" decel="4.248000" sigma="0.5" minGap="2.384206" maxSpeed="134.308540" guiShape="passenger" />
   <vehicle id="leftE_84" type="vehicleE_84" route="edgeE_edgeS" depart="75" departLane="5" />

   <vType id="vehicleN_85" length="5.371000" accel="3.167000" decel="5.799000" sigma="0.5" minGap="2.384206" maxSpeed="134.308540" guiShape="passenger" />
   <vehicle id="rightN_85" type="vehicleN_85" route="edgeN_edgeW" depart="77" departLane="1" />

   <vType id="vehicleN_86" length="4.495000" accel="3.332000" decel="6.085000" sigma="0.5" minGap="2.384206" maxSpeed="134.308540" guiShape="passenger" />
   <vehicle id="rightN_86" type="vehicleN_86" route="edgeN_edgeW" depart="79" departLane="1" />

   <vType id="vehicleW_87" length="4.616000" accel="3.491000" decel="3.602000" sigma="0.5" minGap="2.384206" maxSpeed="134.308540" guiShape="passenger" />
   <vehicle id="straightW_87" type="vehicleW_87" route="edgeW_edgeE" depart="79" departLane="2" />

   <vType id="vehicleW_88" length="5.670000" accel="3.310000" decel="5.132000" sigma="0.5" minGap="2.384206" maxSpeed="134.308540" guiShape="passenger" />
   <vehicle id="straightW_88" type="vehicleW_88" route="edgeW_edgeE" depart="80" departLane="5" />

   <vType id="vehicleE_89" length="5.014000" accel="3.031000" decel="4.828000" sigma="0.5" minGap="2.384206" maxSpeed="134.308540" guiShape="passenger" />
   <vehicle id="straightE_89" type="vehicleE_89" route="edgeE_edgeW" depart="80" departLane="2" />

   <vType id="vehicleS_90" length="4.990000" accel="2.575000" decel="3.970000" sigma="0.5" minGap="2.384206" maxSpeed="134.308540" guiShape="passenger" />
   <vehicle id="rightS_90" type="vehicleS_90" route="edgeS_edgeE" depart="82" departLane="1" />

   <vType id="vehicleW_91" length="5.677000" accel="3.759000" decel="4.887000" sigma="0.5" minGap="2.384206" maxSpeed="134.308540" guiShape="passenger" />
   <vehicle id="straightW_91" type="vehicleW_91" route="edgeW_edgeE" depart="82" departLane="2" />

   <vType id="vehicleW_92" length="4.643000" accel="3.003000" decel="4.919000" sigma="0.5" minGap="2.384206" maxSpeed="134.308540" guiShape="passenger" />
   <vehicle id="straightW_92" type="vehicleW_92" route="edgeW_edgeE" depart="83" departLane="5" />

   <vType id="vehicleW_93" length="5.447000" accel="2.640000" decel="5.881000" sigma="0.5" minGap="2.384206" maxSpeed="134.308540" guiShape="passenger" />
   <vehicle id="rightW_93" type="vehicleW_93" route="edgeW_edgeS" depart="84" departLane="2" />

   <vType id="vehicleW_94" length="5.400000" accel="3.174000" decel="5.487000" sigma="0.5" minGap="2.384206" maxSpeed="134.308540" guiShape="passenger" />
   <vehicle id="straightW_94" type="vehicleW_94" route="edgeW_edgeE" depart="85" departLane="3" />

   <vType id="vehicleW_95" length="4.746000" accel="3.760000" decel="4.644000" sigma="0.5" minGap="2.384206" maxSpeed="134.308540" guiShape="passenger" />
   <vehicle id="straightW_95" type="vehicleW_95" route="edgeW_edgeE" depart="88" departLane="3" />

   <vType id="vehicleN_96" length="4.956000" accel="3.683000" decel="6.135000" sigma="0.5" minGap="2.384206" maxSpeed="134.308540" guiShape="passenger" />
   <vehicle id="rightN_96" type="vehicleN_96" route="edgeN_edgeW" depart="89" departLane="1" />

   <vType id="vehicleS_97" length="3.925000" accel="2.408000" decel="6.125000" sigma="0.5" minGap="2.384206" maxSpeed="134.308540" guiShape="passenger" />
   <vehicle id="rightS_97" type="vehicleS_97" route="edgeS_edgeE" depart="89" departLane="1" />

   <vType id="vehicleW_98" length="4.373000" accel="3.250000" decel="4.693000" sigma="0.5" minGap="2.384206" maxSpeed="134.308540" guiShape="passenger" />
   <vehicle id="rightW_98" type="vehicleW_98" route="edgeW_edgeS" depart="89" departLane="1" />

   <vType id="vehicleW_99" length="5.187000" accel="3.489000" decel="6.130000" sigma="0.5" minGap="2.384206" maxSpeed="134.308540" guiShape="passenger" />
   <vehicle id="straightW_99" type="vehicleW_99" route="edgeW_edgeE" depart="90" departLane="2" />

   <vType id="vehicleW_100" length="4.060000" accel="3.874000" decel="5.791000" sigma="0.5" minGap="2.384206" maxSpeed="134.308540" guiShape="passenger" />
   <vehicle id="straightW_100" type="vehicleW_100" route="edgeW_edgeE" depart="91" departLane="2" />

   <vType id="vehicleW_101" length="4.424000" accel="2.813000" decel="3.931000" sigma="0.5" minGap="2.384206" maxSpeed="134.308540" guiShape="passenger" />
   <vehicle id="rightW_101" type="vehicleW_101" route="edgeW_edgeS" depart="92" departLane="2" />

   <vType id="vehicleW_102" length="5.009000" accel="2.578000" decel="6.252000" sigma="0.5" minGap="2.384206" maxSpeed="134.308540" guiShape="passenger" />
   <vehicle id="rightW_102" type="vehicleW_102" route="edgeW_edgeS" depart="93" departLane="1" />

   <vType id="vehicleW_103" length="5.593000" accel="3.890000" decel="4.396000" sigma="0.5" minGap="2.384206" maxSpeed="134.308540" guiShape="passenger" />
   <vehicle id="leftW_103" type="vehicleW_103" route="edgeW_edgeN" depart="95" departLane="6" />

   <vType id="vehicleN_104" length="4.541000" accel="2.675000" decel="5.606000" sigma="0.5" minGap="2.384206" maxSpeed="134.308540" guiShape="passenger" />
   <vehicle id="rightN_104" type="vehicleN_104" route="edgeN_edgeW" depart="97" departLane="1" />

   <vType id="vehicleE_105" length="4.789000" accel="3.743000" decel="4.357000" sigma="0.5" minGap="2.384206" maxSpeed="134.308540" guiShape="passenger" />
   <vehicle id="straightE_105" type="vehicleE_105" route="edgeE_edgeW" depart="98" departLane="3" />

   <vType id="vehicleE_106" length="5.238000" accel="2.463000" decel="3.891000" sigma="0.5" minGap="2.384206" maxSpeed="134.308540" guiShape="passenger" />
   <vehicle id="straightE_106" type="vehicleE_106" route="edgeE_edgeW" depart="102" departLane="4" />

   <vType id="vehicleS_107" length="4.150000" accel="3.853000" decel="6.093000" sigma="0.5" minGap="2.384206" maxSpeed="134.308540" guiShape="passenger" />
   <vehicle id="rightS_107" type="vehicleS_107" route="edgeS_edgeE" depart="105" departLane="1" />

   <vType id="vehicleW_108" length="4.713000" accel="3.337000" decel="5.525000" sigma="0.5" minGap="2.384206" maxSpeed="134.308540" guiShape="passenger" />
   <vehicle id="straightW_108" type="vehicleW_108" route="edgeW_edgeE" depart="106" departLane="5" />

   <vType id="vehicleS_109" length="3.943000" accel="3.708000" decel="5.189000" sigma="0.5" minGap="2.384206" maxSpeed="134.308540" guiShape="passenger" />