<additional>
   <tlLogic id="juncMain" type="static" programID="1" offset="0">
       <phase duration="104.249897" state="GGrrrrrrrrrGGrrrrrrrrrrGrG"/>
       <phase duration="4.208976" state="yyrrrrrrrrryyrrrrrrrrrrGrG"/>
       <phase duration="7.627217" state="rrrrrrrrrrrrrrrrrrrrrrrGrG"/>
       <phase duration="22.781297" state="rrrrrrrrrGGrrrrrrrrrGGrrrr"/>
       <phase duration="19.537562" state="rrGgGGGGgggrrGgGGGGgggGrGr"/>
       <phase duration="5.716880" state="rryyyyyyyyyrryyyyyyyyyGrGr"/>
       <phase duration="12.254220" state="rrrrrrrrrrrrrrrrrrrrrrGrGr"/>
   </tlLogic>
</additional>
