<?xml version="1.0" encoding="UTF-8"?>

<!-- generated on 2021-10-23 04:06:18 by Eclipse SUMO netconvert Version 1.10.0
<configuration xmlns:xsi="http://www.w3.org/2001/XMLSchema-instance" xsi:noNamespaceSchemaLocation="http://sumo.dlr.de/xsd/netconvertConfiguration.xsd">

    <input>
        <node-files value="data4/cross.nod.xml"/>
        <edge-files value="data4/cross.edg.xml"/>
        <connection-files value="data4/cross.con.xml"/>
    </input>

    <output>
        <output-file value="data4/cross.net.xml"/>
    </output>

    <junctions>
        <no-turnarounds.except-turnlane value="true"/>
    </junctions>

    <report>
        <aggregate-warnings value="5"/>
    </report>

</configuration>
-->

<net version="1.9" junctionCornerDetail="5" limitTurnSpeed="5.50" xmlns:xsi="http://www.w3.org/2001/XMLSchema-instance" xsi:noNamespaceSchemaLocation="http://sumo.dlr.de/xsd/net_file.xsd">

    <location netOffset="900.00,400.00" convBoundary="0.00,0.00,1200.00,800.00" origBoundary="-900.00,-400.00,300.00,400.00" projParameter="!"/>

    <edge id=":juncE_0" function="internal">
        <lane id=":juncE_0_0" index="0" disallow="pedestrian" speed="3.65" length="4.67" shape="1200.00,398.40 1201.20,399.20 1201.60,400.00 1201.20,400.80 1200.00,401.60"/>
    </edge>
    <edge id=":juncE_w0" function="walkingarea">
        <lane id=":juncE_w0_0" index="0" allow="pedestrian" speed="1.00" length="35.20" width="3.20" shape="1200.00,416.00 1200.00,419.20 1200.00,380.80 1200.00,384.00"/>
    </edge>
    <edge id=":juncMain_0" function="internal">
        <lane id=":juncMain_0_0" index="0" disallow="pedestrian" speed="6.86" length="5.34" shape="882.40,420.70 882.01,417.94 880.82,415.98 880.60,415.84"/>
        <lane id=":juncMain_0_1" index="1" disallow="pedestrian" speed="7.64" length="8.30" shape="885.60,420.70 885.01,417.94 883.23,415.98 880.60,414.93"/>
    </edge>
    <edge id=":juncMain_2" function="internal">
        <lane id=":juncMain_2_0" index="0" disallow="pedestrian" speed="22.98" length="41.40" shape="885.60,420.70 885.60,379.30"/>
        <lane id=":juncMain_2_1" index="1" disallow="pedestrian" speed="22.98" length="41.40" shape="888.80,420.70 888.80,379.30"/>
        <lane id=":juncMain_2_2" index="2" disallow="pedestrian" speed="22.98" length="41.40" shape="892.00,420.70 892.00,379.30"/>
        <lane id=":juncMain_2_3" index="3" disallow="pedestrian" speed="22.98" length="41.40" shape="895.20,420.70 895.20,379.30"/>
    </edge>
    <edge id=":juncMain_6" function="internal">
        <lane id=":juncMain_6_0" index="0" disallow="pedestrian" speed="13.31" length="17.50" shape="898.40,420.70 899.99,409.54 903.20,404.20"/>
        <lane id=":juncMain_6_1" index="1" disallow="pedestrian" speed="12.90" length="15.55" shape="898.40,420.70 899.99,410.94 903.20,406.27"/>
    </edge>
    <edge id=":juncMain_8" function="internal">
        <lane id=":juncMain_8_0" index="0" disallow="pedestrian" speed="3.65" length="2.34" shape="898.40,420.70 899.20,419.50 900.00,419.10"/>
    </edge>
    <edge id=":juncMain_34" function="internal">
        <lane id=":juncMain_34_0" index="0" disallow="pedestrian" speed="6.86" length="4.82" shape="880.60,415.84 878.86,414.79 876.10,414.40"/>
    </edge>
    <edge id=":juncMain_35" function="internal">
        <lane id=":juncMain_35_0" index="0" disallow="pedestrian" speed="7.64" length="4.54" shape="880.60,414.93 880.26,414.79 876.10,414.40"/>
    </edge>
    <edge id=":juncMain_36" function="internal">
        <lane id=":juncMain_36_0" index="0" disallow="pedestrian" speed="13.31" length="23.62" shape="903.20,404.20 904.77,401.57 912.74,396.79 923.90,395.20"/>
    </edge>
    <edge id=":juncMain_37" function="internal">
        <lane id=":juncMain_37_0" index="0" disallow="pedestrian" speed="12.90" length="23.03" shape="903.20,406.27 904.77,403.98 912.74,399.79 923.90,398.40"/>
    </edge>
    <edge id=":juncMain_38" function="internal">
        <lane id=":juncMain_38_0" index="0" disallow="pedestrian" speed="3.65" length="2.34" shape="900.00,419.10 900.80,419.50 901.60,420.70"/>
    </edge>
    <edge id=":juncMain_9" function="internal">
        <lane id=":juncMain_9_0" index="0" disallow="pedestrian" speed="6.86" length="5.34" shape="923.90,414.40 921.14,414.79 919.17,415.97 919.04,416.20"/>
        <lane id=":juncMain_9_1" index="1" disallow="pedestrian" speed="7.64" length="7.67" shape="923.90,414.40 919.74,414.79 916.77,415.97 916.57,416.20"/>
    </edge>
    <edge id=":juncMain_11" function="internal">
        <lane id=":juncMain_11_0" index="0" disallow="pedestrian" speed="16.90" length="47.80" shape="923.90,411.20 876.10,411.20"/>
        <lane id=":juncMain_11_1" index="1" disallow="pedestrian" speed="16.90" length="47.80" shape="923.90,408.00 876.10,408.00"/>
        <lane id=":juncMain_11_2" index="2" disallow="pedestrian" speed="16.90" length="47.80" shape="923.90,404.80 876.10,404.80"/>
    </edge>
    <edge id=":juncMain_14" function="internal">
        <lane id=":juncMain_14_0" index="0" disallow="pedestrian" speed="13.33" length="20.69" shape="923.90,401.60 911.34,400.21 904.04,396.80"/>
        <lane id=":juncMain_14_1" index="1" disallow="pedestrian" speed="12.90" length="18.57" shape="923.90,401.60 912.74,400.21 906.25,396.80"/>
    </edge>
    <edge id=":juncMain_16" function="internal">
        <lane id=":juncMain_16_0" index="0" disallow="pedestrian" speed="3.65" length="2.34" shape="923.90,401.60 922.70,400.80 922.30,400.00"/>
    </edge>
    <edge id=":juncMain_39" function="internal">
        <lane id=":juncMain_39_0" index="0" disallow="pedestrian" speed="6.86" length="4.82" shape="919.04,416.20 917.99,417.94 917.60,420.70"/>
    </edge>
    <edge id=":juncMain_40" function="internal">
        <lane id=":juncMain_40_0" index="0" disallow="pedestrian" speed="7.64" length="5.17" shape="916.57,416.20 914.99,417.94 914.40,420.70"/>
    </edge>
    <edge id=":juncMain_41" function="internal">
        <lane id=":juncMain_41_0" index="0" disallow="pedestrian" speed="13.33" length="20.56" shape="904.04,396.80 902.38,396.03 896.99,389.06 895.20,379.30"/>
    </edge>
    <edge id=":juncMain_42" function="internal">
        <lane id=":juncMain_42_0" index="0" disallow="pedestrian" speed="12.90" length="20.00" shape="906.25,396.80 904.77,396.03 899.99,389.06 898.40,379.30"/>
    </edge>
    <edge id=":juncMain_43" function="internal">
        <lane id=":juncMain_43_0" index="0" disallow="pedestrian" speed="3.65" length="2.34" shape="922.30,400.00 922.70,399.20 923.90,398.40"/>
    </edge>
    <edge id=":juncMain_17" function="internal">
        <lane id=":juncMain_17_0" index="0" disallow="pedestrian" speed="6.86" length="5.34" shape="917.60,379.30 917.99,382.06 919.18,384.02 919.40,384.16"/>
        <lane id=":juncMain_17_1" index="1" disallow="pedestrian" speed="7.64" length="8.30" shape="914.40,379.30 914.99,382.06 916.77,384.02 919.40,385.07"/>
    </edge>
    <edge id=":juncMain_19" function="internal">
        <lane id=":juncMain_19_0" index="0" disallow="pedestrian" speed="22.98" length="41.40" shape="914.40,379.30 914.40,420.70"/>
        <lane id=":juncMain_19_1" index="1" disallow="pedestrian" speed="22.98" length="41.40" shape="911.20,379.30 911.20,420.70"/>
        <lane id=":juncMain_19_2" index="2" disallow="pedestrian" speed="22.98" length="41.40" shape="908.00,379.30 908.00,420.70"/>
        <lane id=":juncMain_19_3" index="3" disallow="pedestrian" speed="22.98" length="41.40" shape="904.80,379.30 904.80,420.70"/>
    </edge>
    <edge id=":juncMain_23" function="internal">
        <lane id=":juncMain_23_0" index="0" disallow="pedestrian" speed="13.31" length="17.50" shape="901.60,379.30 900.01,390.46 896.80,395.80"/>
        <lane id=":juncMain_23_1" index="1" disallow="pedestrian" speed="12.90" length="15.55" shape="901.60,379.30 900.01,389.06 896.80,393.73"/>
    </edge>
    <edge id=":juncMain_25" function="internal">
        <lane id=":juncMain_25_0" index="0" disallow="pedestrian" speed="3.65" length="2.34" shape="901.60,379.30 900.80,380.50 900.00,380.90"/>
    </edge>
    <edge id=":juncMain_44" function="internal">
        <lane id=":juncMain_44_0" index="0" disallow="pedestrian" speed="6.86" length="4.82" shape="919.40,384.16 921.14,385.21 923.90,385.60"/>
    </edge>
    <edge id=":juncMain_45" function="internal">
        <lane id=":juncMain_45_0" index="0" disallow="pedestrian" speed="7.64" length="4.54" shape="919.40,385.07 919.74,385.21 923.90,385.60"/>
    </edge>
    <edge id=":juncMain_46" function="internal">
        <lane id=":juncMain_46_0" index="0" disallow="pedestrian" speed="13.31" length="23.62" shape="896.80,395.80 895.23,398.43 887.26,403.21 876.10,404.80"/>
    </edge>
    <edge id=":juncMain_47" function="internal">
        <lane id=":juncMain_47_0" index="0" disallow="pedestrian" speed="12.90" length="23.03" shape="896.80,393.73 895.23,396.02 887.26,400.21 876.10,401.60"/>
    </edge>
    <edge id=":juncMain_48" function="internal">
        <lane id=":juncMain_48_0" index="0" disallow="pedestrian" speed="3.65" length="2.34" shape="900.00,380.90 899.20,380.50 898.40,379.30"/>
    </edge>
    <edge id=":juncMain_26" function="internal">
        <lane id=":juncMain_26_0" index="0" disallow="pedestrian" speed="6.86" length="5.34" shape="876.10,385.60 878.86,385.21 880.83,384.03 880.96,383.80"/>
        <lane id=":juncMain_26_1" index="1" disallow="pedestrian" speed="7.64" length="7.67" shape="876.10,385.60 880.26,385.21 883.23,384.03 883.43,383.80"/>
    </edge>
    <edge id=":juncMain_28" function="internal">
        <lane id=":juncMain_28_0" index="0" disallow="pedestrian" speed="16.90" length="47.80" shape="876.10,388.80 923.90,388.80"/>
        <lane id=":juncMain_28_1" index="1" disallow="pedestrian" speed="16.90" length="47.80" shape="876.10,392.00 923.90,392.00"/>
        <lane id=":juncMain_28_2" index="2" disallow="pedestrian" speed="16.90" length="47.80" shape="876.10,395.20 923.90,395.20"/>
    </edge>
    <edge id=":juncMain_31" function="internal">
        <lane id=":juncMain_31_0" index="0" disallow="pedestrian" speed="13.33" length="20.69" shape="876.10,398.40 888.66,399.79 895.96,403.20"/>
        <lane id=":juncMain_31_1" index="1" disallow="pedestrian" speed="12.90" length="18.57" shape="876.10,398.40 887.26,399.79 893.75,403.20"/>
    </edge>
    <edge id=":juncMain_33" function="internal">
        <lane id=":juncMain_33_0" index="0" disallow="pedestrian" speed="3.65" length="2.34" shape="876.10,398.40 877.30,399.20 877.70,400.00"/>
    </edge>
    <edge id=":juncMain_49" function="internal">
        <lane id=":juncMain_49_0" index="0" disallow="pedestrian" speed="6.86" length="4.82" shape="880.96,383.80 882.01,382.06 882.40,379.30"/>
    </edge>
    <edge id=":juncMain_50" function="internal">
        <lane id=":juncMain_50_0" index="0" disallow="pedestrian" speed="7.64" length="5.17" shape="883.43,383.80 885.01,382.06 885.60,379.30"/>
    </edge>
    <edge id=":juncMain_51" function="internal">
        <lane id=":juncMain_51_0" index="0" disallow="pedestrian" speed="13.33" length="20.56" shape="895.96,403.20 897.62,403.97 903.01,410.94 904.80,420.70"/>
    </edge>
    <edge id=":juncMain_52" function="internal">
        <lane id=":juncMain_52_0" index="0" disallow="pedestrian" speed="12.90" length="20.00" shape="893.75,403.20 895.23,403.97 900.01,410.94 901.60,420.70"/>
    </edge>
    <edge id=":juncMain_53" function="internal">
        <lane id=":juncMain_53_0" index="0" disallow="pedestrian" speed="3.65" length="2.34" shape="877.70,400.00 877.30,400.80 876.10,401.60"/>
    </edge>
    <edge id=":juncMain_c0" function="crossing" crossingEdges="edgeN_I edgeN_O">
        <lane id=":juncMain_c0_0" index="0" allow="pedestrian" speed="1.00" length="38.40" width="4.50" shape="919.20,418.45 880.80,418.45"/>
    </edge>
    <edge id=":juncMain_c1" function="crossing" crossingEdges="edgeE_I edgeE_O">
        <lane id=":juncMain_c1_0" index="0" allow="pedestrian" speed="1.00" length="32.00" width="4.50" shape="921.65,384.00 921.65,416.00"/>
    </edge>
    <edge id=":juncMain_c2" function="crossing" crossingEdges="edgeS_I edgeS_O">
        <lane id=":juncMain_c2_0" index="0" allow="pedestrian" speed="1.00" length="38.40" width="4.50" shape="880.80,381.55 919.20,381.55"/>
    </edge>
    <edge id=":juncMain_c3" function="crossing" crossingEdges="edgeW_I edgeW_O">
        <lane id=":juncMain_c3_0" index="0" allow="pedestrian" speed="1.00" length="32.00" width="4.50" shape="878.35,416.00 878.35,384.00"/>
    </edge>
    <edge id=":juncMain_w0" function="walkingarea">
        <lane id=":juncMain_w0_0" index="0" allow="pedestrian" speed="1.00" length="3.82" width="4.50" shape="876.10,416.00 876.10,419.20 877.60,420.70 880.80,420.70 880.67,419.26 880.28,418.09 879.62,417.18 878.71,416.52 877.54,416.13"/>
    </edge>
    <edge id=":juncMain_w1" function="walkingarea">
        <lane id=":juncMain_w1_0" index="0" allow="pedestrian" speed="1.00" length="3.82" width="4.50" shape="919.20,420.70 922.40,420.70 923.90,419.20 923.90,416.00 922.46,416.13 921.29,416.52 920.38,417.18 919.72,418.09 919.33,419.26"/>
    </edge>
    <edge id=":juncMain_w2" function="walkingarea">
        <lane id=":juncMain_w2_0" index="0" allow="pedestrian" speed="1.00" length="3.82" width="4.50" shape="923.90,384.00 923.90,380.80 922.40,379.30 919.20,379.30 919.33,380.74 919.72,381.91 920.38,382.82 921.29,383.48 922.46,383.87"/>
    </edge>
    <edge id=":juncMain_w3" function="walkingarea">
        <lane id=":juncMain_w3_0" index="0" allow="pedestrian" speed="1.00" length="3.82" width="4.50" shape="880.80,379.30 877.60,379.30 876.10,380.80 876.10,384.00 877.54,383.87 878.71,383.48 879.62,382.82 880.28,381.91 880.67,380.74"/>
    </edge>
    <edge id=":juncN_0" function="internal">
        <lane id=":juncN_0_0" index="0" disallow="pedestrian" speed="3.65" length="4.67" shape="901.60,800.00 900.80,801.20 900.00,801.60 899.20,801.20 898.40,800.00"/>
    </edge>
    <edge id=":juncN_w0" function="walkingarea">
        <lane id=":juncN_w0_0" index="0" allow="pedestrian" speed="1.00" length="41.60" width="3.20" shape="880.80,800.00 877.60,800.00 922.40,800.00 919.20,800.00"/>
    </edge>
    <edge id=":juncS_0" function="internal">
        <lane id=":juncS_0_0" index="0" disallow="pedestrian" speed="3.65" length="4.67" shape="898.40,0.00 899.20,-1.20 900.00,-1.60 900.80,-1.20 901.60,0.00"/>
    </edge>
    <edge id=":juncS_w0" function="walkingarea">
        <lane id=":juncS_w0_0" index="0" allow="pedestrian" speed="1.00" length="41.60" width="3.20" shape="919.20,0.00 922.40,0.00 877.60,0.00 880.80,0.00"/>
    </edge>
    <edge id=":juncW_0" function="internal">
        <lane id=":juncW_0_0" index="0" disallow="pedestrian" speed="3.65" length="4.67" shape="0.00,401.60 -1.20,400.80 -1.60,400.00 -1.20,399.20 0.00,398.40"/>
    </edge>
    <edge id=":juncW_w0" function="walkingarea">
        <lane id=":juncW_w0_0" index="0" allow="pedestrian" speed="1.00" length="35.20" width="3.20" shape="0.00,384.00 0.00,380.80 0.00,419.20 0.00,416.00"/>
    </edge>

    <edge id="edgeE_I" from="juncMain" to="juncE" priority="46">
        <lane id="edgeE_I_0" index="0" allow="pedestrian" speed="22.50" length="276.10" shape="923.90,382.40 1200.00,382.40"/>
        <lane id="edgeE_I_1" index="1" disallow="pedestrian" speed="22.50" length="276.10" shape="923.90,385.60 1200.00,385.60"/>
        <lane id="edgeE_I_2" index="2" disallow="pedestrian" speed="22.50" length="276.10" shape="923.90,388.80 1200.00,388.80"/>
        <lane id="edgeE_I_3" index="3" disallow="pedestrian" speed="22.50" length="276.10" shape="923.90,392.00 1200.00,392.00"/>
        <lane id="edgeE_I_4" index="4" disallow="pedestrian" speed="22.50" length="276.10" shape="923.90,395.20 1200.00,395.20"/>
        <lane id="edgeE_I_5" index="5" disallow="pedestrian" speed="22.50" length="276.10" shape="923.90,398.40 1200.00,398.40"/>
    </edge>
    <edge id="edgeE_O" from="juncE" to="juncMain" priority="78">
        <lane id="edgeE_O_0" index="0" allow="pedestrian" speed="11.30" length="276.10" shape="1200.00,417.60 923.90,417.60"/>
        <lane id="edgeE_O_1" index="1" disallow="pedestrian" speed="11.30" length="276.10" shape="1200.00,414.40 923.90,414.40"/>
        <lane id="edgeE_O_2" index="2" disallow="pedestrian" speed="11.30" length="276.10" shape="1200.00,411.20 923.90,411.20"/>
        <lane id="edgeE_O_3" index="3" disallow="pedestrian" speed="11.30" length="276.10" shape="1200.00,408.00 923.90,408.00"/>
        <lane id="edgeE_O_4" index="4" disallow="pedestrian" speed="11.30" length="276.10" shape="1200.00,404.80 923.90,404.80"/>
        <lane id="edgeE_O_5" index="5" disallow="pedestrian" speed="11.30" length="276.10" shape="1200.00,401.60 923.90,401.60"/>
    </edge>
    <edge id="edgeN_I" from="juncMain" to="juncN" priority="46">
        <lane id="edgeN_I_0" index="0" allow="pedestrian" speed="23.41" length="379.30" shape="920.80,420.70 920.80,800.00"/>
        <lane id="edgeN_I_1" index="1" disallow="pedestrian" speed="23.41" length="379.30" shape="917.60,420.70 917.60,800.00"/>
        <lane id="edgeN_I_2" index="2" disallow="pedestrian" speed="23.41" length="379.30" shape="914.40,420.70 914.40,800.00"/>
        <lane id="edgeN_I_3" index="3" disallow="pedestrian" speed="23.41" length="379.30" shape="911.20,420.70 911.20,800.00"/>
        <lane id="edgeN_I_4" index="4" disallow="pedestrian" speed="23.41" length="379.30" shape="908.00,420.70 908.00,800.00"/>
        <lane id="edgeN_I_5" index="5" disallow="pedestrian" speed="23.41" length="379.30" shape="904.80,420.70 904.80,800.00"/>
        <lane id="edgeN_I_6" index="6" disallow="pedestrian" speed="23.41" length="379.30" shape="901.60,420.70 901.60,800.00"/>
    </edge>
    <edge id="edgeN_O" from="juncN" to="juncMain" priority="78">
        <lane id="edgeN_O_0" index="0" allow="pedestrian" speed="22.54" length="379.30" shape="879.20,800.00 879.20,420.70"/>
        <lane id="edgeN_O_1" index="1" disallow="pedestrian" speed="22.54" length="379.30" shape="882.40,800.00 882.40,420.70"/>
        <lane id="edgeN_O_2" index="2" disallow="pedestrian" speed="22.54" length="379.30" shape="885.60,800.00 885.60,420.70"/>
        <lane id="edgeN_O_3" index="3" disallow="pedestrian" speed="22.54" length="379.30" shape="888.80,800.00 888.80,420.70"/>
        <lane id="edgeN_O_4" index="4" disallow="pedestrian" speed="22.54" length="379.30" shape="892.00,800.00 892.00,420.70"/>
        <lane id="edgeN_O_5" index="5" disallow="pedestrian" speed="22.54" length="379.30" shape="895.20,800.00 895.20,420.70"/>
        <lane id="edgeN_O_6" index="6" disallow="pedestrian" speed="22.54" length="379.30" shape="898.40,800.00 898.40,420.70"/>
    </edge>
    <edge id="edgeS_I" from="juncMain" to="juncS" priority="46">
        <lane id="edgeS_I_0" index="0" allow="pedestrian" speed="23.41" length="379.30" shape="879.20,379.30 879.20,0.00"/>
        <lane id="edgeS_I_1" index="1" disallow="pedestrian" speed="23.41" length="379.30" shape="882.40,379.30 882.40,0.00"/>
        <lane id="edgeS_I_2" index="2" disallow="pedestrian" speed="23.41" length="379.30" shape="885.60,379.30 885.60,0.00"/>
        <lane id="edgeS_I_3" index="3" disallow="pedestrian" speed="23.41" length="379.30" shape="888.80,379.30 888.80,0.00"/>
        <lane id="edgeS_I_4" index="4" disallow="pedestrian" speed="23.41" length="379.30" shape="892.00,379.30 892.00,0.00"/>
        <lane id="edgeS_I_5" index="5" disallow="pedestrian" speed="23.41" length="379.30" shape="895.20,379.30 895.20,0.00"/>
        <lane id="edgeS_I_6" index="6" disallow="pedestrian" speed="23.41" length="379.30" shape="898.40,379.30 898.40,0.00"/>
    </edge>
    <edge id="edgeS_O" from="juncS" to="juncMain" priority="78">
        <lane id="edgeS_O_0" index="0" allow="pedestrian" speed="22.54" length="379.30" shape="920.80,0.00 920.80,379.30"/>
        <lane id="edgeS_O_1" index="1" disallow="pedestrian" speed="22.54" length="379.30" shape="917.60,0.00 917.60,379.30"/>
        <lane id="edgeS_O_2" index="2" disallow="pedestrian" speed="22.54" length="379.30" shape="914.40,0.00 914.40,379.30"/>
        <lane id="edgeS_O_3" index="3" disallow="pedestrian" speed="22.54" length="379.30" shape="911.20,0.00 911.20,379.30"/>
        <lane id="edgeS_O_4" index="4" disallow="pedestrian" speed="22.54" length="379.30" shape="908.00,0.00 908.00,379.30"/>
        <lane id="edgeS_O_5" index="5" disallow="pedestrian" speed="22.54" length="379.30" shape="904.80,0.00 904.80,379.30"/>
        <lane id="edgeS_O_6" index="6" disallow="pedestrian" speed="22.54" length="379.30" shape="901.60,0.00 901.60,379.30"/>
    </edge>
    <edge id="edgeW_I" from="juncMain" to="juncW" priority="46">
        <lane id="edgeW_I_0" index="0" allow="pedestrian" speed="22.50" length="876.10" shape="876.10,417.60 0.00,417.60"/>
        <lane id="edgeW_I_1" index="1" disallow="pedestrian" speed="22.50" length="876.10" shape="876.10,414.40 0.00,414.40"/>
        <lane id="edgeW_I_2" index="2" disallow="pedestrian" speed="22.50" length="876.10" shape="876.10,411.20 0.00,411.20"/>
        <lane id="edgeW_I_3" index="3" disallow="pedestrian" speed="22.50" length="876.10" shape="876.10,408.00 0.00,408.00"/>
        <lane id="edgeW_I_4" index="4" disallow="pedestrian" speed="22.50" length="876.10" shape="876.10,404.80 0.00,404.80"/>
        <lane id="edgeW_I_5" index="5" disallow="pedestrian" speed="22.50" length="876.10" shape="876.10,401.60 0.00,401.60"/>
    </edge>
    <edge id="edgeW_O" from="juncW" to="juncMain" priority="78">
        <lane id="edgeW_O_0" index="0" allow="pedestrian" speed="11.30" length="876.10" shape="0.00,382.40 876.10,382.40"/>
        <lane id="edgeW_O_1" index="1" disallow="pedestrian" speed="11.30" length="876.10" shape="0.00,385.60 876.10,385.60"/>
        <lane id="edgeW_O_2" index="2" disallow="pedestrian" speed="11.30" length="876.10" shape="0.00,388.80 876.10,388.80"/>
        <lane id="edgeW_O_3" index="3" disallow="pedestrian" speed="11.30" length="876.10" shape="0.00,392.00 876.10,392.00"/>
        <lane id="edgeW_O_4" index="4" disallow="pedestrian" speed="11.30" length="876.10" shape="0.00,395.20 876.10,395.20"/>
        <lane id="edgeW_O_5" index="5" disallow="pedestrian" speed="11.30" length="876.10" shape="0.00,398.40 876.10,398.40"/>
    </edge>

    <tlLogic id="juncMain" type="static" programID="0" offset="0">
        <phase duration="24" state="ggGGGGrrrrrrrrrrrggGGGGrrrrrrrrrrrrGrG"/>
        <phase duration="5"  state="ggGGGGrrrrrrrrrrrggGGGGrrrrrrrrrrrrrrr"/>
        <phase duration="5"  state="yyyyyyrrrrrrrrrrryyyyyyrrrrrrrrrrrrrrr"/>
        <phase duration="6"  state="rrrrrrGGGrrrrrrrrrrrrrrGGGrrrrrrrrrrrr"/>
        <phase duration="5"  state="rrrrrryyyrrrrrrrrrrrrrryyyrrrrrrrrrrrr"/>
        <phase duration="24" state="rrrrrrrrrggGGGgggrrrrrrrrrggGGGgggGrGr"/>
        <phase duration="5"  state="rrrrrrrrrggGGGgggrrrrrrrrrggGGGgggrrrr"/>
        <phase duration="5"  state="rrrrrrrrryyyyygggrrrrrrrrryyyyygggrrrr"/>
        <phase duration="6"  state="rrrrrrrrrrrrrrGGGrrrrrrrrrrrrrrGGGrrrr"/>
        <phase duration="5"  state="rrrrrrrrrrrrrryyyrrrrrrrrrrrrrryyyrrrr"/>
    </tlLogic>

    <junction id="juncE" type="priority" x="1200.00" y="400.00" incLanes="edgeE_I_0 edgeE_I_1 edgeE_I_2 edgeE_I_3 edgeE_I_4 edgeE_I_5" intLanes=":juncE_0_0" shape="1200.00,400.00 1200.00,380.80 1200.00,400.00">
        <request index="0" response="0" foes="0" cont="0"/>
    </junction>
    <junction id="juncMain" type="traffic_light" x="900.00" y="400.00" incLanes="edgeN_O_0 edgeN_O_1 edgeN_O_2 edgeN_O_3 edgeN_O_4 edgeN_O_5 edgeN_O_6 edgeE_O_0 edgeE_O_1 edgeE_O_2 edgeE_O_3 edgeE_O_4 edgeE_O_5 edgeS_O_0 edgeS_O_1 edgeS_O_2 edgeS_O_3 edgeS_O_4 edgeS_O_5 edgeS_O_6 edgeW_O_0 edgeW_O_1 edgeW_O_2 edgeW_O_3 edgeW_O_4 edgeW_O_5 :juncMain_w1_0 :juncMain_w2_0 :juncMain_w3_0 :juncMain_w0_0" intLanes=":juncMain_34_0 :juncMain_35_0 :juncMain_2_0 :juncMain_2_1 :juncMain_2_2 :juncMain_2_3 :juncMain_36_0 :juncMain_37_0 :juncMain_38_0 :juncMain_39_0 :juncMain_40_0 :juncMain_11_0 :juncMain_11_1 :juncMain_11_2 :juncMain_41_0 :juncMain_42_0 :juncMain_43_0 :juncMain_44_0 :juncMain_45_0 :juncMain_19_0 :juncMain_19_1 :juncMain_19_2 :juncMain_19_3 :juncMain_46_0 :juncMain_47_0 :juncMain_48_0 :juncMain_49_0 :juncMain_50_0 :juncMain_28_0 :juncMain_28_1 :juncMain_28_2 :juncMain_51_0 :juncMain_52_0 :juncMain_53_0 :juncMain_c0_0 :juncMain_c1_0 :juncMain_c2_0 :juncMain_c3_0" shape="877.60,420.70 922.40,420.70 922.57,419.87 922.77,419.58 923.07,419.37 923.44,419.24 923.90,419.20 923.90,380.80 923.07,380.63 922.77,380.42 922.57,380.13 922.44,379.76 922.40,379.30 877.60,379.30 877.43,380.13 877.23,380.42 876.93,380.63 876.56,380.76 876.10,380.80 876.10,419.20 876.93,419.37 877.23,419.58 877.43,419.87 877.56,420.24">
        <request index="0"  response="10010000000000000000000000000000000000" foes="10010000000000000000000000000000000010" cont="1"/>
        <request index="1"  response="10010000000000000000000000000000000001" foes="10010000000000000000000000000000000001" cont="1"/>
        <request index="2"  response="01010110001100000000001100000000000000" foes="01010111111101100000001111100000000000" cont="0"/>
        <request index="3"  response="01010110001100000000001100000000000000" foes="01010111111101100000001111100000000000" cont="0"/>
        <request index="4"  response="01010110001100000000001100000000000000" foes="01010111111101100000001111100000000000" cont="0"/>
        <request index="5"  response="01010110001100000000001100000000000000" foes="01010111111101100000001111100000000000" cont="0"/>
        <request index="6"  response="00110110000000011110001100000000000000" foes="00110111110000011110011111100000000000" cont="1"/>
        <request index="7"  response="00110110000000011110001100000000000000" foes="00110111110000011110011111100000000000" cont="1"/>
        <request index="8"  response="00010110000000000000000000000000000000" foes="00010110000000000000000000000000000000" cont="1"/>
        <request index="9"  response="00110000000000011110000000000000000000" foes="00110000000000011110000000000000000000" cont="1"/>
        <request index="10" response="00110000000000011110000000000000000000" foes="00110000000000011110000000000000000000" cont="1"/>
        <request index="11" response="10100000000001111110000000000011111100" foes="10100110000001111110000000000011111100" cont="0"/>
        <request index="12" response="10100000000001111110000000000011111100" foes="10100110000001111110000000000011111100" cont="0"/>
        <request index="13" response="10100000000001111110000000000011111100" foes="10100110000001111110000000000011111100" cont="0"/>
        <request index="14" response="01100001110001111110000000000011111100" foes="01100001110011111110000000000011111100" cont="1"/>
        <request index="15" response="01100001110001111110000000000011111100" foes="01100001110011111110000000000011111100" cont="1"/>
        <request index="16" response="00100000000000000000000000000011000000" foes="00100000000000000000000000000011000000" cont="1"/>
        <request index="17" response="01100000000000000000000000000000000000" foes="01100000000000000001000000000000000000" cont="1"/>
        <request index="18" response="01100000000000000000100000000000000000" foes="01100000000000000000100000000000000000" cont="1"/>
        <request index="19" response="01010110000000000000001100011000000000" foes="01010111110000000000001111111011000000" cont="0"/>
        <request index="20" response="01010110000000000000001100011000000000" foes="01010111110000000000001111111011000000" cont="0"/>
        <request index="21" response="01010110000000000000001100011000000000" foes="01010111110000000000001111111011000000" cont="0"/>
        <request index="22" response="01010110000000000000001100011000000000" foes="01010111110000000000001111111011000000" cont="0"/>
        <request index="23" response="11000110000000000000001100000000111100" foes="11001111110000000000001111100000111100" cont="1"/>
        <request index="24" response="11000110000000000000001100000000111100" foes="11001111110000000000001111100000111100" cont="1"/>
        <request index="25" response="01000000000000000000001100000000000000" foes="01000000000000000000001100000000000000" cont="1"/>
        <request index="26" response="11000000000000000000000000000000111100" foes="11000000000000000000000000000000111100" cont="1"/>
        <request index="27" response="11000000000000000000000000000000111100" foes="11000000000000000000000000000000111100" cont="1"/>
        <request index="28" response="10100000000001111110000000000011111100" foes="10100000000001111110001100000011111100" cont="0"/>
        <request index="29" response="10100000000001111110000000000011111100" foes="10100000000001111110001100000011111100" cont="0"/>
        <request index="30" response="10100000000001111110000000000011111100" foes="10100000000001111110001100000011111100" cont="0"/>
        <request index="31" response="10010000000001111110000011100011111100" foes="10010000000001111110000011100111111100" cont="1"/>
        <request index="32" response="10010000000001111110000011100011111100" foes="10010000000001111110000011100111111100" cont="1"/>
        <request index="33" response="10000000000001100000000000000000000000" foes="10000000000001100000000000000000000000" cont="1"/>
        <request index="34" response="00000000000000000000000000000000000000" foes="00000110000000011110000000011111111111" cont="0"/>
        <request index="35" response="00000000000000000000000000000000000000" foes="00000001110000000001111111111011000000" cont="0"/>
        <request index="36" response="00000000000000000000000000000000000000" foes="00000000001111111111101100000000111100" cont="0"/>
        <request index="37" response="00000000000000000000000000000000000000" foes="00001111111101100000000011100000000011" cont="0"/>
    </junction>