<routes>
   <personFlow id="pRegN" begin="0" end="3000" personsPerHour="260.135965">
        <walk edges="edgeN_O edgeS_I" speed="1.646662"/>
    </personFlow>
   <personFlow id="pRegS" begin="0" end="3000" personsPerHour="425.424307">
        <walk edges="edgeS_O edgeN_I" speed="1.946131"/>
    </personFlow>
   <personFlow id="pRegW" begin="0" end="3000" personsPerHour="1048.772382">
        <walk edges="edgeW_O edgeE_I" speed="1.370764"/>
    </personFlow>
   <personFlow id="pRegE" begin="0" end="3000" personsPerHour="722.980333">
        <walk edges="edgeE_O edgeW_I" speed="0.900501"/>
    </personFlow>
   <personFlow id="pOppN" begin="0" end="3000" personsPerHour="766.127116" departPos="800.000000">
        <walk edges="edgeN_I edgeS_O" speed="2.224492"/>
    </personFlow>
   <personFlow id="pOppS" begin="0" end="3000" personsPerHour="934.511266" departPos="800.000000">
        <walk edges="edgeS_I edgeN_O" speed="1.894154"/>
    </personFlow>
   <personFlow id="pOppW" begin="0" end="3000" personsPerHour="468.855237" departPos="600.000000">
        <walk edges="edgeW_I edgeE_O" speed="1.013738"/>
    </personFlow>
   <personFlow id="pOppE" begin="0" end="3000" personsPerHour="567.369526" departPos="700.000000">
        <walk edges="edgeE_I edgeW_O" speed="1.568702"/>
    </personFlow>

    <route id="edgeN_edgeN" edges="edgeN_O edgeN_I" />
    <route id="edgeN_edgeS" edges="edgeN_O edgeS_I" />
    <route id="edgeN_edgeW" edges="edgeN_O edgeW_I" />
    <route id="edgeN_edgeE" edges="edgeN_O edgeE_I" />
    <route id="edgeS_edgeN" edges="edgeS_O edgeN_I" />
    <route id="edgeS_edgeS" edges="edgeS_O edgeS_I" />
    <route id="edgeS_edgeW" edges="edgeS_O edgeW_I" />
    <route id="edgeS_edgeE" edges="edgeS_O edgeE_I" />
    <route id="edgeW_edgeN" edges="edgeW_O edgeN_I" />
    <route id="edgeW_edgeS" edges="edgeW_O edgeS_I" />
    <route id="edgeW_edgeW" edges="edgeW_O edgeW_I" />
    <route id="edgeW_edgeE" edges="edgeW_O edgeE_I" />
    <route id="edgeE_edgeN" edges="edgeE_O edgeN_I" />
    <route id="edgeE_edgeS" edges="edgeE_O edgeS_I" />
    <route id="edgeE_edgeW" edges="edgeE_O edgeW_I" />
    <route id="edgeE_edgeE" edges="edgeE_O edgeE_I" />
    
   <vType id="vehicleS_0" length="4.303000" accel="3.322000" decel="4.795000" sigma="0.5" minGap="2.533228" maxSpeed="131.116704" guiShape="passenger" />
   <vehicle id="leftS_0" type="vehicleS_0" route="edgeS_edgeW" depart="0" departLane="5" />

   <vType id="vehicleE_1" length="4.319000" accel="3.111000" decel="4.458000" sigma="0.5" minGap="2.533228" maxSpeed="131.116704" guiShape="passenger" />
   <vehicle id="leftE_1" type="vehicleE_1" route="edgeE_edgeS" depart="0" departLane="4" />

   <vType id="vehicleN_2" length="5.294000" accel="2.175000" decel="5.172000" sigma="0.5" minGap="2.533228" maxSpeed="131.116704" guiShape="passenger" />
   <vehicle id="straightN_2" type="vehicleN_2" route="edgeN_edgeS" depart="1" departLane="4" />

   <vType id="vehicleS_3" length="5.543000" accel="2.694000" decel="3.092000" sigma="0.5" minGap="2.533228" maxSpeed="131.116704" guiShape="passenger" />
   <vehicle id="leftS_3" type="vehicleS_3" route="edgeS_edgeW" depart="1" departLane="5" />

   <vType id="vehicleE_4" length="3.999000" accel="2.887000" decel="3.185000" sigma="0.5" minGap="2.533228" maxSpeed="131.116704" guiShape="passenger" />
   <vehicle id="straightE_4" type="vehicleE_4" route="edgeE_edgeW" depart="1" departLane="3" />

   <vType id="vehicleN_5" length="4.988000" accel="3.556000" decel="3.876000" sigma="0.5" minGap="2.533228" maxSpeed="131.116704" guiShape="passenger" />
   <vehicle id="straightN_5" type="vehicleN_5" route="edgeN_edgeS" depart="2" departLane="2" />

   <vType id="vehicleW_6" length="4.414000" accel="2.290000" decel="3.500000" sigma="0.5" minGap="2.533228" maxSpeed="131.116704" guiShape="passenger" />
   <vehicle id="straightW_6" type="vehicleW_6" route="edgeW_edgeE" depart="2" departLane="2" />

   <vType id="vehicleE_7" length="5.335000" accel="2.420000" decel="3.857000" sigma="0.5" minGap="2.533228" maxSpeed="131.116704" guiShape="passenger" />
   <vehicle id="straightE_7" type="vehicleE_7" route="edgeE_edgeW" depart="2" departLane="4" />

   <vType id="vehicleN_8" length="5.021000" accel="3.122000" decel="3.320000" sigma="0.5" minGap="2.533228" maxSpeed="131.116704" guiShape="passenger" />
   <vehicle id="uturnN_8" type="vehicleN_8" route="edgeN_edgeN" depart="3" departLane="5" />

   <vType id="vehicleW_9" length="5.598000" accel="3.170000" decel="4.446000" sigma="0.5" minGap="2.533228" maxSpeed="131.116704" guiShape="passenger" />
   <vehicle id="straightW_9" type="vehicleW_9" route="edgeW_edgeE" depart="3" departLane="4" />

   <vType id="vehicleE_10" length="4.020000" accel="3.456000" decel="5.169000" sigma="0.5" minGap="2.533228" maxSpeed="131.116704" guiShape="passenger" />
   <vehicle id="rightE_10" type="vehicleE_10" route="edgeE_edgeN" depart="3" departLane="2" />

   <vType id="vehicleN_11" length="5.519000" accel="3.542000" decel="3.739000" sigma="0.5" minGap="2.533228" maxSpeed="131.116704" guiShape="passenger" />
   <vehicle id="leftN_11" type="vehicleN_11" route="edgeN_edgeE" depart="4" departLane="5" />

   <vType id="vehicleS_12" length="4.701000" accel="2.581000" decel="3.540000" sigma="0.5" minGap="2.533228" maxSpeed="131.116704" guiShape="passenger" />
   <vehicle id="uturnS_12" type="vehicleS_12" route="edgeS_edgeS" depart="4" departLane="5" />

   <vType id="vehicleE_13" length="5.443000" accel="2.792000" decel="3.461000" sigma="0.5" minGap="2.533228" maxSpeed="131.116704" guiShape="passenger" />
   <vehicle id="straightE_13" type="vehicleE_13" route="edgeE_edgeW" depart="4" departLane="2" />

   <vType id="vehicleS_14" length="4.111000" accel="3.151000" decel="5.132000" sigma="0.5" minGap="2.533228" maxSpeed="131.116704" guiShape="passenger" />
   <vehicle id="leftS_14" type="vehicleS_14" route="edgeS_edgeW" depart="5" departLane="5" />

   <vType id="vehicleE_15" length="4.716000" accel="2.560000" decel="4.435000" sigma="0.5" minGap="2.533228" maxSpeed="131.116704" guiShape="passenger" />
   <vehicle id="straightE_15" type="vehicleE_15" route="edgeE_edgeW" depart="5" departLane="2" />

   <vType id="vehicleS_16" length="5.195000" accel="3.372000" decel="3.813000" sigma="0.5" minGap="2.533228" maxSpeed="131.116704" guiShape="passenger" />
   <vehicle id="rightS_16" type="vehicleS_16" route="edgeS_edgeE" depart="6" departLane="1" />

   <vType id="vehicleE_17" length="5.406000" accel="2.579000" decel="4.281000" sigma="0.5" minGap="2.533228" maxSpeed="131.116704" guiShape="passenger" />
   <vehicle id="uturnE_17" type="vehicleE_17" route="edgeE_edgeE" depart="6" departLane="4" />

   <vType id="vehicleN_18" length="5.397000" accel="2.634000" decel="4.685000" sigma="0.5" minGap="2.533228" maxSpeed="131.116704" guiShape="passenger" />
   <vehicle id="uturnN_18" type="vehicleN_18" route="edgeN_edgeN" depart="7" departLane="5" />

   <vType id="vehicleW_19" length="4.837000" accel="3.388000" decel="4.368000" sigma="0.5" minGap="2.533228" maxSpeed="131.116704" guiShape="passenger" />
   <vehicle id="rightW_19" type="vehicleW_19" route="edgeW_edgeS" depart="7" departLane="1" />

   <vType id="vehicleS_20" length="5.591000" accel="3.432000" decel="3.520000" sigma="0.5" minGap="2.533228" maxSpeed="131.116704" guiShape="passenger" />
   <vehicle id="straightS_20" type="vehicleS_20" route="edgeS_edgeN" depart="8" departLane="2" />

   <vType id="vehicleN_21" length="4.042000" accel="3.360000" decel="5.055000" sigma="0.5" minGap="2.533228" maxSpeed="131.116704" guiShape="passenger" />
   <vehicle id="straightN_21" type="vehicleN_21" route="edgeN_edgeS" depart="9" departLane="2" />

   <vType id="vehicleE_22" length="4.951000" accel="3.680000" decel="5.531000" sigma="0.5" minGap="2.533228" maxSpeed="131.116704" guiShape="passenger" />
   <vehicle id="straightE_22" type="vehicleE_22" route="edgeE_edgeW" depart="9" departLane="4" />

   <vType id="vehicleE_23" length="3.961000" accel="3.035000" decel="4.538000" sigma="0.5" minGap="2.533228" maxSpeed="131.116704" guiShape="passenger" />
   <vehicle id="leftE_23" type="vehicleE_23" route="edgeE_edgeS" depart="11" departLane="4" />

   <vType id="vehicleN_24" length="4.312000" accel="3.587000" decel="5.329000" sigma="0.5" minGap="2.533228" maxSpeed="131.116704" guiShape="passenger" />
   <vehicle id="straightN_24" type="vehicleN_24" route="edgeN_edgeS" depart="12" departLane="1" />

   <vType id="vehicleW_25" length="4.837000" accel="3.301000" decel="5.395000" sigma="0.5" minGap="2.533228" maxSpeed="131.116704" guiShape="passenger" />
   <vehicle id="straightW_25" type="vehicleW_25" route="edgeW_edgeE" depart="12" departLane="4" />

   <vType id="vehicleE_26" length="5.290000" accel="2.464000" decel="3.104000" sigma="0.5" minGap="2.533228" maxSpeed="131.116704" guiShape="passenger" />
   <vehicle id="rightE_26" type="vehicleE_26" route="edgeE_edgeN" depart="12" departLane="2" />

   <vType id="vehicleS_27" length="4.017000" accel="3.191000" decel="4.706000" sigma="0.5" minGap="2.533228" maxSpeed="131.116704" guiShape="passenger" />
   <vehicle id="rightS_27" type="vehicleS_27" route="edgeS_edgeE" depart="13" departLane="1" />

   <vType id="vehicleE_28" length="4.346000" accel="2.464000" decel="4.130000" sigma="0.5" minGap="2.533228" maxSpeed="131.116704" guiShape="passenger" />
   <vehicle id="rightE_28" type="vehicleE_28" route="edgeE_edgeN" depart="13" departLane="2" />

   <vType id="vehicleN_29" length="5.404000" accel="2.283000" decel="5.178000" sigma="0.5" minGap="2.533228" maxSpeed="131.116704" guiShape="passenger" />
   <vehicle id="straightN_29" type="vehicleN_29" route="edgeN_edgeS" depart="14" departLane="1" />

   <vType id="vehicleS_30" length="5.339000" accel="3.687000" decel="5.523000" sigma="0.5" minGap="2.533228" maxSpeed="131.116704" guiShape="passenger" />
   <vehicle id="uturnS_30" type="vehicleS_30" route="edgeS_edgeS" depart="14" departLane="5" />

   <vType id="vehicleE_31" length="4.287000" accel="2.795000" decel="2.992000" sigma="0.5" minGap="2.533228" maxSpeed="131.116704" guiShape="passenger" />
   <vehicle id="straightE_31" type="vehicleE_31" route="edgeE_edgeW" depart="14" departLane="3" />

   <vType id="vehicleN_32" length="5.492000" accel="3.398000" decel="3.653000" sigma="0.5" minGap="2.533228" maxSpeed="131.116704" guiShape="passenger" />
   <vehicle id="straightN_32" type="vehicleN_32" route="edgeN_edgeS" depart="15" departLane="4" />

   <vType id="vehicleS_33" length="5.563000" accel="3.075000" decel="4.403000" sigma="0.5" minGap="2.533228" maxSpeed="131.116704" guiShape="passenger" />
   <vehicle id="straightS_33" type="vehicleS_33" route="edgeS_edgeN" depart="15" departLane="3" />

   <vType id="vehicleW_34" length="4.775000" accel="3.504000" decel="3.280000" sigma="0.5" minGap="2.533228" maxSpeed="131.116704" guiShape="passenger" />
   <vehicle id="straightW_34" type="vehicleW_34" route="edgeW_edgeE" depart="15" departLane="4" />

   <vType id="vehicleE_35" length="4.931000" accel="3.226000" decel="3.507000" sigma="0.5" minGap="2.533228" maxSpeed="131.116704" guiShape="passenger" />
   <vehicle id="straightE_35" type="vehicleE_35" route="edgeE_edgeW" depart="15" departLane="2" />

   <vType id="vehicleE_36" length="5.037000" accel="3.053000" decel="3.744000" sigma="0.5" minGap="2.533228" maxSpeed="131.116704" guiShape="passenger" />
   <vehicle id="leftE_36" type="vehicleE_36" route="edgeE_edgeS" depart="16" departLane="4" />

   <vType id="vehicleN_37" length="4.329000" accel="2.787000" decel="4.780000" sigma="0.5" minGap="2.533228" maxSpeed="131.116704" guiShape="passenger" />
   <vehicle id="rightN_37" type="vehicleN_37" route="edgeN_edgeW" depart="17" departLane="1" />

   <vType id="vehicleN_38" length="4.877000" accel="2.322000" decel="4.389000" sigma="0.5" minGap="2.533228" maxSpeed="131.116704" guiShape="passenger" />
   <vehicle id="straightN_38" type="vehicleN_38" route="edgeN_edgeS" depart="18" departLane="3" />

   <vType id="vehicleS_39" length="4.041000" accel="2.549000" decel="3.652000" sigma="0.5" minGap="2.533228" maxSpeed="131.116704" guiShape="passenger" />
   <vehicle id="straightS_39" type="vehicleS_39" route="edgeS_edgeN" depart="18" departLane="4" />

   <vType id="vehicleE_40" length="4.431000" accel="3.207000" decel="5.560000" sigma="0.5" minGap="2.533228" maxSpeed="131.116704" guiShape="passenger" />
   <vehicle id="rightE_40" type="vehicleE_40" route="edgeE_edgeN" depart="19" departLane="1" />

   <vType id="vehicleN_41" length="5.180000" accel="2.409000" decel="3.643000" sigma="0.5" minGap="2.533228" maxSpeed="131.116704" guiShape="passenger" />
   <vehicle id="rightN_41" type="vehicleN_41" route="edgeN_edgeW" depart="20" departLane="1" />

   <vType id="vehicleW_42" length="4.371000" accel="2.932000" decel="5.462000" sigma="0.5" minGap="2.533228" maxSpeed="131.116704" guiShape="passenger" />
   <vehicle id="straightW_42" type="vehicleW_42" route="edgeW_edgeE" depart="20" departLane="2" />

   <vType id="vehicleE_43" length="4.393000" accel="2.170000" decel="5.070000" sigma="0.5" minGap="2.533228" maxSpeed="131.116704" guiShape="passenger" />
   <vehicle id="straightE_43" type="vehicleE_43" route="edgeE_edgeW" depart="20" departLane="4" />

   <vType id="vehicleS_44" length="5.118000" accel="3.046000" decel="3.147000" sigma="0.5" minGap="2.533228" maxSpeed="131.116704" guiShape="passenger" />
   <vehicle id="straightS_44" type="vehicleS_44" route="edgeS_edgeN" depart="21" departLane="2" />

   <vType id="vehicleS_45" length="4.446000" accel="3.577000" decel="5.143000" sigma="0.5" minGap="2.533228" maxSpeed="131.116704" guiShape="passenger" />
   <vehicle id="leftS_45" type="vehicleS_45" route="edgeS_edgeW" depart="22" departLane="5" />

   <vType id="vehicleE_46" length="4.099000" accel="3.390000" decel="5.400000" sigma="0.5" minGap="2.533228" maxSpeed="131.116704" guiShape="passenger" />
   <vehicle id="straightE_46" type="vehicleE_46" route="edgeE_edgeW" depart="22" departLane="3" />

   <vType id="vehicleE_47" length="5.277000" accel="2.443000" decel="4.024000" sigma="0.5" minGap="2.533228" maxSpeed="131.116704" guiShape="passenger" />
   <vehicle id="straightE_47" type="vehicleE_47" route="edgeE_edgeW" depart="23" departLane="2" />

   <vType id="vehicleS_48" length="5.281000" accel="3.522000" decel="5.186000" sigma="0.5" minGap="2.533228" maxSpeed="131.116704" guiShape="passenger" />
   <vehicle id="uturnS_48" type="vehicleS_48" route="edgeS_edgeS" depart="24" departLane="5" />

   <vType id="vehicleW_49" length="4.108000" accel="3.535000" decel="5.326000" sigma="0.5" minGap="2.533228" maxSpeed="131.116704" guiShape="passenger" />
   <vehicle id="rightW_49" type="vehicleW_49" route="edgeW_edgeS" depart="24" departLane="1" />

   <vType id="vehicleE_50" length="4.516000" accel="3.454000" decel="5.363000" sigma="0.5" minGap="2.533228" maxSpeed="131.116704" guiShape="passenger" />
   <vehicle id="uturnE_50" type="vehicleE_50" route="edgeE_edgeE" depart="24" departLane="4" />

   <vType id="vehicleN_51" length="4.599000" accel="2.602000" decel="3.024000" sigma="0.5" minGap="2.533228" maxSpeed="131.116704" guiShape="passenger" />
   <vehicle id="straightN_51" type="vehicleN_51" route="edgeN_edgeS" depart="25" departLane="3" />

   <vType id="vehicleS_52" length="5.074000" accel="3.490000" decel="3.787000" sigma="0.5" minGap="2.533228" maxSpeed="131.116704" guiShape="passenger" />
   <vehicle id="straightS_52" type="vehicleS_52" route="edgeS_edgeN" depart="25" departLane="1" />

   <vType id="vehicleW_53" length="4.227000" accel="3.677000" decel="3.595000" sigma="0.5" minGap="2.533228" maxSpeed="131.116704" guiShape="passenger" />
   <vehicle id="uturnW_53" type="vehicleW_53" route="edgeW_edgeW" depart="25" departLane="4" />

   <vType id="vehicleE_54" length="5.157000" accel="2.658000" decel="4.589000" sigma="0.5" minGap="2.533228" maxSpeed="131.116704" guiShape="passenger" />
   <vehicle id="straightE_54" type="vehicleE_54" route="edgeE_edgeW" depart="25" departLane="4" />

   <vType id="vehicleN_55" length="4.247000" accel="2.235000" decel="4.093000" sigma="0.5" minGap="2.533228" maxSpeed="131.116704" guiShape="passenger" />
   <vehicle id="rightN_55" type="vehicleN_55" route="edgeN_edgeW" depart="26" departLane="1" />

   <vType id="vehicleS_56" length="5.048000" accel="2.684000" decel="3.737000" sigma="0.5" minGap="2.533228" maxSpeed="131.116704" guiShape="passenger" />
   <vehicle id="leftS_56" type="vehicleS_56" route="edgeS_edgeW" depart="26" departLane="5" />

   <vType id="vehicleE_57" length="4.616000" accel="2.797000" decel="3.683000" sigma="0.5" minGap="2.533228" maxSpeed="131.116704" guiShape="passenger" />
   <vehicle id="straightE_57" type="vehicleE_57" route="edgeE_edgeW" depart="26" departLane="2" />

   <vType id="vehicleN_58" length="4.566000" accel="3.340000" decel="3.329000" sigma="0.5" minGap="2.533228" maxSpeed="131.116704" guiShape="passenger" />
   <vehicle id="rightN_58" type="vehicleN_58" route="edgeN_edgeW" depart="27" departLane="1" />

   <vType id="vehicleS_59" length="4.439000" accel="2.495000" decel="5.113000" sigma="0.5" minGap="2.533228" maxSpeed="131.116704" guiShape="passenger" />
   <vehicle id="rightS_59" type="vehicleS_59" route="edgeS_edgeE" depart="27" departLane="1" />

   <vType id="vehicleE_60" length="4.725000" accel="3.581000" decel="5.143000" sigma="0.5" minGap="2.533228" maxSpeed="131.116704" guiShape="passenger" />
   <vehicle id="straightE_60" type="vehicleE_60" route="edgeE_edgeW" depart="27" departLane="2" />

   <vType id="vehicleS_61" length="4.972000" accel="2.312000" decel="5.598000" sigma="0.5" minGap="2.533228" maxSpeed="131.116704" guiShape="passenger" />
   <vehicle id="rightS_61" type="vehicleS_61" route="edgeS_edgeE" depart="28" departLane="1" />

   <vType id="vehicleE_62" length="3.966000" accel="2.549000" decel="4.207000" sigma="0.5" minGap="2.533228" maxSpeed="131.116704" guiShape="passenger" />
   <vehicle id="straightE_62" type="vehicleE_62" route="edgeE_edgeW" depart="28" departLane="2" />

   <vType id="vehicleS_63" length="5.088000" accel="3.567000" decel="5.331000" sigma="0.5" minGap="2.533228" maxSpeed="131.116704" guiShape="passenger" />
   <vehicle id="leftS_63" type="vehicleS_63" route="edgeS_edgeW" depart="30" departLane="5" />

   <vType id="vehicleE_64" length="5.102000" accel="2.895000" decel="4.447000" sigma="0.5" minGap="2.533228" maxSpeed="131.116704" guiShape="passenger" />
   <vehicle id="rightE_64" type="vehicleE_64" route="edgeE_edgeN" depart="30" departLane="1" />

   <vType id="vehicleE_65" length="5.003000" accel="3.368000" decel="4.342000" sigma="0.5" minGap="2.533228" maxSpeed="131.116704" guiShape="passenger" />
   <vehicle id="straightE_65" type="vehicleE_65" route="edgeE_edgeW" depart="34" departLane="4" />

   <vType id="vehicleN_66" length="5.132000" accel="2.533000" decel="3.801000" sigma="0.5" minGap="2.533228" maxSpeed="131.116704" guiShape="passenger" />
   <vehicle id="straightN_66" type="vehicleN_66" route="edgeN_edgeS" depart="35" departLane="1" />

   <vType id="vehicleS_67" length="5.098000" accel="3.275000" decel="3.008000" sigma="0.5" minGap="2.533228" maxSpeed="131.116704" guiShape="passenger" />
   <vehicle id="leftS_67" type="vehicleS_67" route="edgeS_edgeW" depart="35" departLane="5" />

   <vType id="vehicleE_68" length="5.333000" accel="2.777000" decel="5.067000" sigma="0.5" minGap="2.533228" maxSpeed="131.116704" guiShape="passenger" />
   <vehicle id="leftE_68" type="vehicleE_68" route="edgeE_edgeS" depart="35" departLane="4" />

   <vType id="vehicleE_69" length="5.199000" accel="3.506000" decel="5.602000" sigma="0.5" minGap="2.533228" maxSpeed="131.116704" guiShape="passenger" />
   <vehicle id="straightE_69" type="vehicleE_69" route="edgeE_edgeW" depart="36" departLane="3" />

   <vType id="vehicleS_70" length="4.583000" accel="3.216000" decel="5.149000" sigma="0.5" minGap="2.533228" maxSpeed="131.116704" guiShape="passenger" />
   <vehicle id="straightS_70" type="vehicleS_70" route="edgeS_edgeN" depart="38" departLane="2" />

   <vType id="vehicleS_71" length="5.391000" accel="2.450000" decel="3.580000" sigma="0.5" minGap="2.533228" maxSpeed="131.116704" guiShape="passenger" />
   <vehicle id="straightS_71" type="vehicleS_71" route="edgeS_edgeN" depart="40" departLane="3" />

   <vType id="vehicleW_72" length="5.212000" accel="2.760000" decel="5.015000" sigma="0.5" minGap="2.533228" maxSpeed="131.116704" guiShape="passenger" />
   <vehicle id="straightW_72" type="vehicleW_72" route="edgeW_edgeE" depart="40" departLane="3" />

   <vType id="vehicleE_73" length="3.958000" accel="3.012000" decel="5.738000" sigma="0.5" minGap="2.533228" maxSpeed="131.116704" guiShape="passenger" />
   <vehicle id="leftE_73" type="vehicleE_73" route="edgeE_edgeS" depart="40" departLane="4" />

   <vType id="vehicleN_74" length="5.544000" accel="2.228000" decel="2.912000" sigma="0.5" minGap="2.533228" maxSpeed="131.116704" guiShape="passenger" />
   <vehicle id="leftN_74" type="vehicleN_74" route="edgeN_edgeE" depart="41" departLane="5" />

   <vType id="vehicleS_75" length="4.183000" accel="2.363000" decel="4.774000" sigma="0.5" minGap="2.533228" maxSpeed="131.116704" guiShape="passenger" />
   <vehicle id="leftS_75" type="vehicleS_75" route="edgeS_edgeW" depart="41" departLane="5" />

   <vType id="vehicleE_76" length="4.950000" accel="3.679000" decel="4.916000" sigma="0.5" minGap="2.533228" maxSpeed="131.116704" guiShape="passenger" />
   <vehicle id="straightE_76" type="vehicleE_76" route="edgeE_edgeW" depart="41" departLane="2" />

   <vType id="vehicleS_77" length="4.453000" accel="3.229000" decel="5.616000" sigma="0.5" minGap="2.533228" maxSpeed="131.116704" guiShape="passenger" />
   <vehicle id="leftS_77" type="vehicleS_77" route="edgeS_edgeW" depart="42" departLane="5" />

   <vType id="vehicleE_78" length="5.329000" accel="2.546000" decel="4.855000" sigma="0.5" minGap="2.533228" maxSpeed="131.116704" guiShape="passenger" />
   <vehicle id="straightE_78" type="vehicleE_78" route="edgeE_edgeW" depart="42" departLane="3" />

   <vType id="vehicleW_79" length="5.248000" accel="2.710000" decel="4.071000" sigma="0.5" minGap="2.533228" maxSpeed="131.116704" guiShape="passenger" />
   <vehicle id="uturnW_79" type="vehicleW_79" route="edgeW_edgeW" depart="43" departLane="4" />

   <vType id="vehicleE_80" length="4.502000" accel="3.499000" decel="5.220000" sigma="0.5" minGap="2.533228" maxSpeed="131.116704" guiShape="passenger" />
   <vehicle id="straightE_80" type="vehicleE_80" route="edgeE_edgeW" depart="43" departLane="2" />

   <vType id="vehicleS_81" length="4.702000" accel="2.405000" decel="3.335000" sigma="0.5" minGap="2.533228" maxSpeed="131.116704" guiShape="passenger" />
   <vehicle id="rightS_81" type="vehicleS_81" route="edgeS_edgeE" depart="44" departLane="1" />

   <vType id="vehicleS_82" length="4.397000" accel="2.873000" decel="5.010000" sigma="0.5" minGap="2.533228" maxSpeed="131.116704" guiShape="passenger" />
   <vehicle id="uturnS_82" type="vehicleS_82" route="edgeS_edgeS" depart="46" departLane="5" />

   <vType id="vehicleE_83" length="4.362000" accel="2.604000" decel="4.560000" sigma="0.5" minGap="2.533228" maxSpeed="131.116704" guiShape="passenger" />
   <vehicle id="straightE_83" type="vehicleE_83" route="edgeE_edgeW" depart="47" departLane="3" />

   <vType id="vehicleW_84" length="4.612000" accel="3.037000" decel="3.522000" sigma="0.5" minGap="2.533228" maxSpeed="131.116704" guiShape="passenger" />
   <vehicle id="straightW_84" type="vehicleW_84" route="edgeW_edgeE" depart="48" departLane="3" />

   <vType id="vehicleW_85" length="5.095000" accel="2.646000" decel="4.517000" sigma="0.5" minGap="2.533228" maxSpeed="131.116704" guiShape="passenger" />
   <vehicle id="straightW_85" type="vehicleW_85" route="edgeW_edgeE" depart="49" departLane="3" />

   <vType id="vehicleE_86" length="4.444000" accel="2.527000" decel="4.925000" sigma="0.5" minGap="2.533228" maxSpeed="131.116704" guiShape="passenger" />
   <vehicle id="straightE_86" type="vehicleE_86" route="edgeE_edgeW" depart="50" departLane="3" />

   <vType id="vehicleN_87" length="5.214000" accel="2.456000" decel="3.452000" sigma="0.5" minGap="2.533228" maxSpeed="131.116704" guiShape="passenger" />
   <vehicle id="straightN_87" type="vehicleN_87" route="edgeN_edgeS" depart="51" departLane="4" />

   <vType id="vehicleS_88" length="5.210000" accel="3.102000" decel="5.681000" sigma="0.5" minGap="2.533228" maxSpeed="131.116704" guiShape="passenger" />
   <vehicle id="straightS_88" type="vehicleS_88" route="edgeS_edgeN" depart="51" departLane="2" />

   <vType id="vehicleW_89" length="4.436000" accel="3.277000" decel="3.190000" sigma="0.5" minGap="2.533228" maxSpeed="131.116704" guiShape="passenger" />
   <vehicle id="straightW_89" type="vehicleW_89" route="edgeW_edgeE" depart="51" departLane="2" />

   <vType id="vehicleW_90" length="4.755000" accel="3.536000" decel="4.496000" sigma="0.5" minGap="2.533228" maxSpeed="131.116704" guiShape="passenger" />
   <vehicle id="rightW_90" type="vehicleW_90" route="edgeW_edgeS" depart="52" departLane="2" />

   <vType id="vehicleE_91" length="5.557000" accel="2.561000" decel="5.335000" sigma="0.5" minGap="2.533228" maxSpeed="131.116704" guiShape="passenger" />
   <vehicle id="straightE_91" type="vehicleE_91" route="edgeE_edgeW" depart="52" departLane="2" />

   <vType id="vehicleS_92" length="4.989000" accel="2.249000" decel="3.256000" sigma="0.5" minGap="2.533228" maxSpeed="131.116704" guiShape="passenger" />
   <vehicle id="leftS_92" type="vehicleS_92" route="edgeS_edgeW" depart="53" departLane="5" />

   <vType id="vehicleW_93" length="4.869000" accel="2.819000" decel="4.560000" sigma="0.5" minGap="2.533228" maxSpeed="131.116704" guiShape="passenger" />
   <vehicle id="straightW_93" type="vehicleW_93" route="edgeW_edgeE" depart="53" departLane="4" />

   <vType id="vehicleE_94" length="4.687000" accel="2.860000" decel="5.330000" sigma="0.5" minGap="2.533228" maxSpeed="131.116704" guiShape="passenger" />
   <vehicle id="straightE_94" type="vehicleE_94" route="edgeE_edgeW" depart="53" departLane="3" />

   <vType id="vehicleN_95" length="4.956000" accel="3.327000" decel="5.585000" sigma="0.5" minGap="2.533228" maxSpeed="131.116704" guiShape="passenger" />
   <vehicle id="straightN_95" type="vehicleN_95" route="edgeN_edgeS" depart="54" departLane="2" />

   <vType id="vehicleW_96" length="4.331000" accel="3.032000" decel="3.278000" sigma="0.5" minGap="2.533228" maxSpeed="131.116704" guiShape="passenger" />
   <vehicle id="leftW_96" type="vehicleW_96" route="edgeW_edgeN" depart="54" departLane="4" />

   <vType id="vehicleE_97" length="4.418000" accel="2.528000" decel="4.883000" sigma="0.5" minGap="2.533228" maxSpeed="131.116704" guiShape="passenger" />
   <vehicle id="straightE_97" type="vehicleE_97" route="edgeE_edgeW" depart="54" departLane="4" />

   <vType id="vehicleS_98" length="4.372000" accel="3.408000" decel="4.541000" sigma="0.5" minGap="2.533228" maxSpeed="131.116704" guiShape="passenger" />
   <vehicle id="leftS_98" type="vehicleS_98" route="edgeS_edgeW" depart="55" departLane="5" />

   <vType id="vehicleE_99" length="4.445000" accel="3.341000" decel="4.481000" sigma="0.5" minGap="2.533228" maxSpeed="131.116704" guiShape="passenger" />
   <vehicle id="straightE_99" type="vehicleE_99" route="edgeE_edgeW" depart="56" departLane="3" />

   <vType id="vehicleE_100" length="4.838000" accel="2.853000" decel="4.566000" sigma="0.5" minGap="2.533228" maxSpeed="131.116704" guiShape="passenger" />
   <vehicle id="straightE_100" type="vehicleE_100" route="edgeE_edgeW" depart="57" departLane="3" />

   <vType id="vehicleW_101" length="5.065000" accel="3.517000" decel="4.534000" sigma="0.5" minGap="2.533228" maxSpeed="131.116704" guiShape="passenger" />
   <vehicle id="straightW_101" type="vehicleW_101" route="edgeW_edgeE" depart="58" departLane="2" />

   <vType id="vehicleS_102" length="5.204000" accel="2.904000" decel="4.721000" sigma="0.5" minGap="2.533228" maxSpeed="131.116704" guiShape="passenger" />
   <vehicle id="leftS_102" type="vehicleS_102" route="edgeS_edgeW" depart="59" departLane="5" />

   <vType id="vehicleW_103" length="4.998000" accel="2.937000" decel="3.087000" sigma="0.5" minGap="2.533228" maxSpeed="131.116704" guiShape="passenger" />
   <vehicle id="straightW_103" type="vehicleW_103" route="edgeW_edgeE" depart="59" departLane="3" />

   <vType id="vehicleE_104" length="4.102000" accel="2.417000" decel="4.022000" sigma="0.5" minGap="2.533228" maxSpeed="131.116704" guiShape="passenger" />
   <vehicle id="straightE_104" type="vehicleE_104" route="edgeE_edgeW" depart="59" departLane="3" />

   <vType id="vehicleN_105" length="5.301000" accel="3.029000" decel="4.148000" sigma="0.5" minGap="2.533228" maxSpeed="131.116704" guiShape="passenger" />
   <vehicle id="uturnN_105" type="vehicleN_105" route="edgeN_edgeN" depart="60" departLane="5" />

   <vType id="vehicleS_106" length="5.565000" accel="2.800000" decel="4.322000" sigma="0.5" minGap="2.533228" maxSpeed="131.116704" guiShape="passenger" />
   <vehicle id="straightS_106" type="vehicleS_106" route="edgeS_edgeN" depart="60" departLane="1" />

   <vType id="vehicleS_107" length="5.204000" accel="3.147000" decel="5.038000" sigma="0.5" minGap="2.533228" maxSpeed="131.116704" guiShape="passenger" />
   <vehicle id="straightS_107" type="vehicleS_107" route="edgeS_edgeN" depart="61" departLane="2" />

   <vType id="vehicleW_108" length="4.412000" accel="3.549000" decel="4.235000" sigma="0.5" minGap="2.533228" maxSpeed="131.116704" guiShape="passenger" />
   <vehicle id="straightW_108" type="vehicleW_108" route="edgeW_edgeE" depart="61" departLane="2" />

   <vType id="vehicleS_109" length="4.856000" accel="3.032000" decel="3.093000" sigma="0.5" minGap="2.533228" maxSpeed="131.116704" guiShape="passenger" />