<?xml version="1.0" encoding="UTF-8"?>

<!-- generated on 2021-10-23 05:40:00 by Eclipse SUMO netconvert Version 1.10.0
<configuration xmlns:xsi="http://www.w3.org/2001/XMLSchema-instance" xsi:noNamespaceSchemaLocation="http://sumo.dlr.de/xsd/netconvertConfiguration.xsd">

    <input>
        <node-files value="data3/cross.nod.xml"/>
        <edge-files value="data3/cross.edg.xml"/>
        <connection-files value="data3/cross.con.xml"/>
    </input>

    <output>
        <output-file value="data3/cross.net.xml"/>
    </output>

    <junctions>
        <no-turnarounds.except-turnlane value="true"/>
    </junctions>

    <report>
        <aggregate-warnings value="5"/>
    </report>

</configuration>
-->

<net version="1.9" junctionCornerDetail="5" limitTurnSpeed="5.50" xmlns:xsi="http://www.w3.org/2001/XMLSchema-instance" xsi:noNamespaceSchemaLocation="http://sumo.dlr.de/xsd/net_file.xsd">

    <location netOffset="600.00,800.00" convBoundary="0.00,0.00,1300.00,1600.00" origBoundary="-600.00,-800.00,700.00,800.00" projParameter="!"/>

    <edge id=":juncE_0" function="internal">
        <lane id=":juncE_0_0" index="0" disallow="pedestrian" speed="3.65" length="4.67" shape="1300.00,798.40 1301.20,799.20 1301.60,800.00 1301.20,800.80 1300.00,801.60"/>
    </edge>
    <edge id=":juncE_w0" function="walkingarea">
        <lane id=":juncE_w0_0" index="0" allow="pedestrian" speed="1.00" length="28.80" width="3.20" shape="1300.00,812.80 1300.00,816.00 1300.00,784.00 1300.00,787.20"/>
    </edge>
    <edge id=":juncMain_0" function="internal">
        <lane id=":juncMain_0_0" index="0" disallow="pedestrian" speed="6.86" length="5.34" shape="585.60,817.50 585.21,814.74 584.03,812.78 583.80,812.64"/>
    </edge>
    <edge id=":juncMain_1" function="internal">
        <lane id=":juncMain_1_0" index="0" disallow="pedestrian" speed="18.69" length="35.00" shape="585.60,817.50 585.60,782.50"/>
        <lane id=":juncMain_1_1" index="1" disallow="pedestrian" speed="18.69" length="35.00" shape="588.80,817.50 588.80,782.50"/>
        <lane id=":juncMain_1_2" index="2" disallow="pedestrian" speed="18.69" length="35.00" shape="592.00,817.50 592.00,782.50"/>
        <lane id=":juncMain_1_3" index="3" disallow="pedestrian" speed="18.69" length="35.00" shape="595.20,817.50 595.20,782.50"/>
    </edge>
    <edge id=":juncMain_5" function="internal">
        <lane id=":juncMain_5_0" index="0" disallow="pedestrian" speed="12.03" length="14.41" shape="598.40,817.50 599.79,809.14 603.20,804.28"/>
    </edge>
    <edge id=":juncMain_6" function="internal">
        <lane id=":juncMain_6_0" index="0" disallow="pedestrian" speed="3.65" length="2.34" shape="598.40,817.50 599.20,816.30 600.00,815.90"/>
    </edge>
    <edge id=":juncMain_34" function="internal">
        <lane id=":juncMain_34_0" index="0" disallow="pedestrian" speed="6.86" length="4.82" shape="583.80,812.64 582.06,811.59 579.30,811.20"/>
    </edge>
    <edge id=":juncMain_35" function="internal">
        <lane id=":juncMain_35_0" index="0" disallow="pedestrian" speed="12.03" length="19.01" shape="603.20,804.28 603.97,803.18 610.94,799.59 620.70,798.40"/>
    </edge>
    <edge id=":juncMain_36" function="internal">
        <lane id=":juncMain_36_0" index="0" disallow="pedestrian" speed="3.65" length="2.34" shape="600.00,815.90 600.80,816.30 601.60,817.50"/>
    </edge>
    <edge id=":juncMain_7" function="internal">
        <lane id=":juncMain_7_0" index="0" disallow="pedestrian" speed="6.86" length="5.34" shape="620.70,811.20 617.94,811.59 615.98,812.78 615.84,813.00"/>
        <lane id=":juncMain_7_1" index="1" disallow="pedestrian" speed="7.64" length="7.67" shape="620.70,811.20 616.54,811.59 613.58,812.78 613.37,813.00"/>
        <lane id=":juncMain_7_2" index="2" disallow="pedestrian" speed="7.64" length="8.30" shape="620.70,808.00 617.94,808.59 615.98,810.38 614.93,813.00"/>
        <lane id=":juncMain_7_3" index="3" disallow="pedestrian" speed="8.29" length="10.72" shape="620.70,808.00 616.54,808.59 613.58,810.38 612.00,813.00"/>
    </edge>
    <edge id=":juncMain_11" function="internal">
        <lane id=":juncMain_11_0" index="0" disallow="pedestrian" speed="15.29" length="41.40" shape="620.70,808.00 579.30,808.00"/>
        <lane id=":juncMain_11_1" index="1" disallow="pedestrian" speed="15.29" length="41.40" shape="620.70,804.80 579.30,804.80"/>
        <lane id=":juncMain_11_2" index="2" disallow="pedestrian" speed="15.29" length="41.40" shape="620.70,801.60 579.30,801.60"/>
    </edge>
    <edge id=":juncMain_14" function="internal">
        <lane id=":juncMain_14_0" index="0" disallow="pedestrian" speed="12.50" length="12.21" shape="620.70,801.60 609.54,800.41 608.64,800.00"/>
        <lane id=":juncMain_14_1" index="1" disallow="pedestrian" speed="12.03" length="10.72" shape="620.70,801.60 610.94,800.41 610.15,800.00"/>
    </edge>
    <edge id=":juncMain_16" function="internal">
        <lane id=":juncMain_16_0" index="0" disallow="pedestrian" speed="3.65" length="2.34" shape="620.70,801.60 619.50,800.80 619.10,800.00"/>
    </edge>
    <edge id=":juncMain_37" function="internal">
        <lane id=":juncMain_37_0" index="0" disallow="pedestrian" speed="6.86" length="4.82" shape="615.84,813.00 614.79,814.74 614.40,817.50"/>
    </edge>
    <edge id=":juncMain_38" function="internal">
        <lane id=":juncMain_38_0" index="0" disallow="pedestrian" speed="7.64" length="5.17" shape="613.37,813.00 611.79,814.74 611.20,817.50"/>
    </edge>
    <edge id=":juncMain_39" function="internal">
        <lane id=":juncMain_39_0" index="0" disallow="pedestrian" speed="7.64" length="4.54" shape="614.93,813.00 614.79,813.34 614.40,817.50"/>
    </edge>
    <edge id=":juncMain_40" function="internal">
        <lane id=":juncMain_40_0" index="0" disallow="pedestrian" speed="8.29" length="4.60" shape="612.00,813.00 611.79,813.34 611.20,817.50"/>
    </edge>
    <edge id=":juncMain_41" function="internal">
        <lane id=":juncMain_41_0" index="0" disallow="pedestrian" speed="12.50" length="23.90" shape="608.64,800.00 601.58,796.83 596.79,790.86 595.20,782.50"/>
    </edge>
    <edge id=":juncMain_42" function="internal">
        <lane id=":juncMain_42_0" index="0" disallow="pedestrian" speed="12.03" length="22.71" shape="610.15,800.00 603.98,796.83 599.79,790.86 598.40,782.50"/>
    </edge>
    <edge id=":juncMain_43" function="internal">
        <lane id=":juncMain_43_0" index="0" disallow="pedestrian" speed="3.65" length="2.34" shape="619.10,800.00 619.50,799.20 620.70,798.40"/>
    </edge>
    <edge id=":juncMain_17" function="internal">
        <lane id=":juncMain_17_0" index="0" disallow="pedestrian" speed="6.86" length="5.34" shape="614.40,782.50 614.79,785.26 615.97,787.22 616.20,787.36"/>
    </edge>
    <edge id=":juncMain_18" function="internal">
        <lane id=":juncMain_18_0" index="0" disallow="pedestrian" speed="18.69" length="35.00" shape="614.40,782.50 614.40,817.50"/>
        <lane id=":juncMain_18_1" index="1" disallow="pedestrian" speed="18.69" length="35.00" shape="611.20,782.50 611.20,817.50"/>
        <lane id=":juncMain_18_2" index="2" disallow="pedestrian" speed="18.69" length="35.00" shape="608.00,782.50 608.00,817.50"/>
        <lane id=":juncMain_18_3" index="3" disallow="pedestrian" speed="18.69" length="35.00" shape="604.80,782.50 604.80,817.50"/>
    </edge>
    <edge id=":juncMain_22" function="internal">
        <lane id=":juncMain_22_0" index="0" disallow="pedestrian" speed="12.03" length="14.41" shape="601.60,782.50 600.21,790.86 596.80,795.72"/>
    </edge>
    <edge id=":juncMain_23" function="internal">
        <lane id=":juncMain_23_0" index="0" disallow="pedestrian" speed="3.65" length="2.34" shape="601.60,782.50 600.80,783.70 600.00,784.10"/>
    </edge>
    <edge id=":juncMain_44" function="internal">
        <lane id=":juncMain_44_0" index="0" disallow="pedestrian" speed="6.86" length="4.82" shape="616.20,787.36 617.94,788.41 620.70,788.80"/>
    </edge>
    <edge id=":juncMain_45" function="internal">
        <lane id=":juncMain_45_0" index="0" disallow="pedestrian" speed="12.03" length="19.01" shape="596.80,795.72 596.03,796.82 589.06,800.41 579.30,801.60"/>
    </edge>
    <edge id=":juncMain_46" function="internal">
        <lane id=":juncMain_46_0" index="0" disallow="pedestrian" speed="3.65" length="2.34" shape="600.00,784.10 599.20,783.70 598.40,782.50"/>
    </edge>
    <edge id=":juncMain_24" function="internal">
        <lane id=":juncMain_24_0" index="0" disallow="pedestrian" speed="6.86" length="5.34" shape="579.30,788.80 582.06,788.41 584.02,787.22 584.16,787.00"/>
        <lane id=":juncMain_24_1" index="1" disallow="pedestrian" speed="7.64" length="7.67" shape="579.30,788.80 583.46,788.41 586.42,787.22 586.63,787.00"/>
        <lane id=":juncMain_24_2" index="2" disallow="pedestrian" speed="7.64" length="8.30" shape="579.30,792.00 582.06,791.41 584.02,789.62 585.07,787.00"/>
        <lane id=":juncMain_24_3" index="3" disallow="pedestrian" speed="8.29" length="10.72" shape="579.30,792.00 583.46,791.41 586.42,789.62 588.00,787.00"/>
    </edge>
    <edge id=":juncMain_28" function="internal">
        <lane id=":juncMain_28_0" index="0" disallow="pedestrian" speed="15.29" length="41.40" shape="579.30,792.00 620.70,792.00"/>
        <lane id=":juncMain_28_1" index="1" disallow="pedestrian" speed="15.29" length="41.40" shape="579.30,795.20 620.70,795.20"/>
        <lane id=":juncMain_28_2" index="2" disallow="pedestrian" speed="15.29" length="41.40" shape="579.30,798.40 620.70,798.40"/>
    </edge>
    <edge id=":juncMain_31" function="internal">
        <lane id=":juncMain_31_0" index="0" disallow="pedestrian" speed="12.50" length="12.21" shape="579.30,798.40 590.46,799.59 591.36,800.00"/>
        <lane id=":juncMain_31_1" index="1" disallow="pedestrian" speed="12.03" length="10.72" shape="579.30,798.40 589.06,799.59 589.85,800.00"/>
    </edge>
    <edge id=":juncMain_33" function="internal">
        <lane id=":juncMain_33_0" index="0" disallow="pedestrian" speed="3.65" length="2.34" shape="579.30,798.40 580.50,799.20 580.90,800.00"/>
    </edge>
    <edge id=":juncMain_47" function="internal">
        <lane id=":juncMain_47_0" index="0" disallow="pedestrian" speed="6.86" length="4.82" shape="584.16,787.00 585.21,785.26 585.60,782.50"/>
    </edge>
    <edge id=":juncMain_48" function="internal">
        <lane id=":juncMain_48_0" index="0" disallow="pedestrian" speed="7.64" length="5.17" shape="586.63,787.00 588.21,785.26 588.80,782.50"/>
    </edge>
    <edge id=":juncMain_49" function="internal">
        <lane id=":juncMain_49_0" index="0" disallow="pedestrian" speed="7.64" length="4.54" shape="585.07,787.00 585.21,786.66 585.60,782.50"/>
    </edge>
    <edge id=":juncMain_50" function="internal">
        <lane id=":juncMain_50_0" index="0" disallow="pedestrian" speed="8.29" length="4.60" shape="588.00,787.00 588.21,786.66 588.80,782.50"/>
    </edge>
    <edge id=":juncMain_51" function="internal">
        <lane id=":juncMain_51_0" index="0" disallow="pedestrian" speed="12.50" length="23.90" shape="591.36,800.00 598.42,803.17 603.21,809.14 604.80,817.50"/>
    </edge>
    <edge id=":juncMain_52" function="internal">
        <lane id=":juncMain_52_0" index="0" disallow="pedestrian" speed="12.03" length="22.71" shape="589.85,800.00 596.02,803.17 600.21,809.14 601.60,817.50"/>
    </edge>
    <edge id=":juncMain_53" function="internal">
        <lane id=":juncMain_53_0" index="0" disallow="pedestrian" speed="3.65" length="2.34" shape="580.90,800.00 580.50,800.80 579.30,801.60"/>
    </edge>
    <edge id=":juncMain_c0" function="crossing" crossingEdges="edgeN_I edgeN_O">
        <lane id=":juncMain_c0_0" index="0" allow="pedestrian" speed="1.00" length="32.00" width="4.50" shape="616.00,815.25 584.00,815.25"/>
    </edge>
    <edge id=":juncMain_c1" function="crossing" crossingEdges="edgeE_I edgeE_O">
        <lane id=":juncMain_c1_0" index="0" allow="pedestrian" speed="1.00" length="25.60" width="4.50" shape="618.45,787.20 618.45,812.80"/>
    </edge>
    <edge id=":juncMain_c2" function="crossing" crossingEdges="edgeS_I edgeS_O">
        <lane id=":juncMain_c2_0" index="0" allow="pedestrian" speed="1.00" length="32.00" width="4.50" shape="584.00,784.75 616.00,784.75"/>
    </edge>
    <edge id=":juncMain_c3" function="crossing" crossingEdges="edgeW_I edgeW_O">
        <lane id=":juncMain_c3_0" index="0" allow="pedestrian" speed="1.00" length="25.60" width="4.50" shape="581.55,812.80 581.55,787.20"/>
    </edge>
    <edge id=":juncMain_w0" function="walkingarea">
        <lane id=":juncMain_w0_0" index="0" allow="pedestrian" speed="1.00" length="3.82" width="4.50" shape="579.30,812.80 579.30,816.00 580.80,817.50 584.00,817.50 583.87,816.06 583.48,814.89 582.83,813.98 581.91,813.32 580.74,812.93"/>
    </edge>
    <edge id=":juncMain_w1" function="walkingarea">
        <lane id=":juncMain_w1_0" index="0" allow="pedestrian" speed="1.00" length="3.82" width="4.50" shape="616.00,817.50 619.20,817.50 620.70,816.00 620.70,812.80 619.26,812.93 618.09,813.32 617.17,813.98 616.52,814.89 616.13,816.06"/>
    </edge>
    <edge id=":juncMain_w2" function="walkingarea">
        <lane id=":juncMain_w2_0" index="0" allow="pedestrian" speed="1.00" length="3.82" width="4.50" shape="620.70,787.20 620.70,784.00 619.20,782.50 616.00,782.50 616.13,783.94 616.52,785.11 617.17,786.02 618.09,786.68 619.26,787.07"/>
    </edge>
    <edge id=":juncMain_w3" function="walkingarea">
        <lane id=":juncMain_w3_0" index="0" allow="pedestrian" speed="1.00" length="3.82" width="4.50" shape="584.00,782.50 580.80,782.50 579.30,784.00 579.30,787.20 580.74,787.07 581.91,786.68 582.83,786.02 583.48,785.11 583.87,783.94"/>
    </edge>
    <edge id=":juncN_0" function="internal">
        <lane id=":juncN_0_0" index="0" disallow="pedestrian" speed="3.65" length="4.67" shape="601.60,1600.00 600.80,1601.20 600.00,1601.60 599.20,1601.20 598.40,1600.00"/>
    </edge>
    <edge id=":juncN_w0" function="walkingarea">
        <lane id=":juncN_w0_0" index="0" allow="pedestrian" speed="1.00" length="35.20" width="3.20" shape="584.00,1600.00 580.80,1600.00 619.20,1600.00 616.00,1600.00"/>
    </edge>
    <edge id=":juncS_0" function="internal">
        <lane id=":juncS_0_0" index="0" disallow="pedestrian" speed="3.65" length="4.67" shape="598.40,0.00 599.20,-1.20 600.00,-1.60 600.80,-1.20 601.60,0.00"/>
    </edge>
    <edge id=":juncS_w0" function="walkingarea">
        <lane id=":juncS_w0_0" index="0" allow="pedestrian" speed="1.00" length="35.20" width="3.20" shape="616.00,0.00 619.20,0.00 580.80,0.00 584.00,0.00"/>
    </edge>
    <edge id=":juncW_0" function="internal">
        <lane id=":juncW_0_0" index="0" disallow="pedestrian" speed="3.65" length="4.67" shape="0.00,801.60 -1.20,800.80 -1.60,800.00 -1.20,799.20 0.00,798.40"/>
    </edge>
    <edge id=":juncW_w0" function="walkingarea">
        <lane id=":juncW_w0_0" index="0" allow="pedestrian" speed="1.00" length="28.80" width="3.20" shape="0.00,787.20 0.00,784.00 0.00,816.00 0.00,812.80"/>
    </edge>

    <edge id="edgeE_I" from="juncMain" to="juncE" priority="46">
        <lane id="edgeE_I_0" index="0" allow="pedestrian" speed="18.59" length="679.30" shape="620.70,785.60 1300.00,785.60"/>
        <lane id="edgeE_I_1" index="1" disallow="pedestrian" speed="18.59" length="679.30" shape="620.70,788.80 1300.00,788.80"/>
        <lane id="edgeE_I_2" index="2" disallow="pedestrian" speed="18.59" length="679.30" shape="620.70,792.00 1300.00,792.00"/>
        <lane id="edgeE_I_3" index="3" disallow="pedestrian" speed="18.59" length="679.30" shape="620.70,795.20 1300.00,795.20"/>
        <lane id="edgeE_I_4" index="4" disallow="pedestrian" speed="18.59" length="679.30" shape="620.70,798.40 1300.00,798.40"/>
    </edge>
    <edge id="edgeE_O" from="juncE" to="juncMain" priority="78">
        <lane id="edgeE_O_0" index="0" allow="pedestrian" speed="11.99" length="679.30" shape="1300.00,814.40 620.70,814.40"/>
        <lane id="edgeE_O_1" index="1" disallow="pedestrian" speed="11.99" length="679.30" shape="1300.00,811.20 620.70,811.20"/>
        <lane id="edgeE_O_2" index="2" disallow="pedestrian" speed="11.99" length="679.30" shape="1300.00,808.00 620.70,808.00"/>
        <lane id="edgeE_O_3" index="3" disallow="pedestrian" speed="11.99" length="679.30" shape="1300.00,804.80 620.70,804.80"/>
        <lane id="edgeE_O_4" index="4" disallow="pedestrian" speed="11.99" length="679.30" shape="1300.00,801.60 620.70,801.60"/>
    </edge>
    <edge id="edgeN_I" from="juncMain" to="juncN" priority="46">
        <lane id="edgeN_I_0" index="0" allow="pedestrian" speed="14.33" length="782.50" shape="617.60,817.50 617.60,1600.00"/>
        <lane id="edgeN_I_1" index="1" disallow="pedestrian" speed="14.33" length="782.50" shape="614.40,817.50 614.40,1600.00"/>
        <lane id="edgeN_I_2" index="2" disallow="pedestrian" speed="14.33" length="782.50" shape="611.20,817.50 611.20,1600.00"/>
        <lane id="edgeN_I_3" index="3" disallow="pedestrian" speed="14.33" length="782.50" shape="608.00,817.50 608.00,1600.00"/>
        <lane id="edgeN_I_4" index="4" disallow="pedestrian" speed="14.33" length="782.50" shape="604.80,817.50 604.80,1600.00"/>
        <lane id="edgeN_I_5" index="5" disallow="pedestrian" speed="14.33" length="782.50" shape="601.60,817.50 601.60,1600.00"/>
    </edge>
    <edge id="edgeN_O" from="juncN" to="juncMain" priority="78">
        <lane id="edgeN_O_0" index="0" allow="pedestrian" speed="23.04" length="782.50" shape="582.40,1600.00 582.40,817.50"/>
        <lane id="edgeN_O_1" index="1" disallow="pedestrian" speed="23.04" length="782.50" shape="585.60,1600.00 585.60,817.50"/>
        <lane id="edgeN_O_2" index="2" disallow="pedestrian" speed="23.04" length="782.50" shape="588.80,1600.00 588.80,817.50"/>
        <lane id="edgeN_O_3" index="3" disallow="pedestrian" speed="23.04" length="782.50" shape="592.00,1600.00 592.00,817.50"/>
        <lane id="edgeN_O_4" index="4" disallow="pedestrian" speed="23.04" length="782.50" shape="595.20,1600.00 595.20,817.50"/>
        <lane id="edgeN_O_5" index="5" disallow="pedestrian" speed="23.04" length="782.50" shape="598.40,1600.00 598.40,817.50"/>
    </edge>
    <edge id="edgeS_I" from="juncMain" to="juncS" priority="46">
        <lane id="edgeS_I_0" index="0" allow="pedestrian" speed="14.33" length="782.50" shape="582.40,782.50 582.40,0.00"/>
        <lane id="edgeS_I_1" index="1" disallow="pedestrian" speed="14.33" length="782.50" shape="585.60,782.50 585.60,0.00"/>
        <lane id="edgeS_I_2" index="2" disallow="pedestrian" speed="14.33" length="782.50" shape="588.80,782.50 588.80,0.00"/>
        <lane id="edgeS_I_3" index="3" disallow="pedestrian" speed="14.33" length="782.50" shape="592.00,782.50 592.00,0.00"/>
        <lane id="edgeS_I_4" index="4" disallow="pedestrian" speed="14.33" length="782.50" shape="595.20,782.50 595.20,0.00"/>
        <lane id="edgeS_I_5" index="5" disallow="pedestrian" speed="14.33" length="782.50" shape="598.40,782.50 598.40,0.00"/>
    </edge>
    <edge id="edgeS_O" from="juncS" to="juncMain" priority="78">
        <lane id="edgeS_O_0" index="0" allow="pedestrian" speed="23.04" length="782.50" shape="617.60,0.00 617.60,782.50"/>
        <lane id="edgeS_O_1" index="1" disallow="pedestrian" speed="23.04" length="782.50" shape="614.40,0.00 614.40,782.50"/>
        <lane id="edgeS_O_2" index="2" disallow="pedestrian" speed="23.04" length="782.50" shape="611.20,0.00 611.20,782.50"/>
        <lane id="edgeS_O_3" index="3" disallow="pedestrian" speed="23.04" length="782.50" shape="608.00,0.00 608.00,782.50"/>
        <lane id="edgeS_O_4" index="4" disallow="pedestrian" speed="23.04" length="782.50" shape="604.80,0.00 604.80,782.50"/>
        <lane id="edgeS_O_5" index="5" disallow="pedestrian" speed="23.04" length="782.50" shape="601.60,0.00 601.60,782.50"/>
    </edge>
    <edge id="edgeW_I" from="juncMain" to="juncW" priority="46">
        <lane id="edgeW_I_0" index="0" allow="pedestrian" speed="18.59" length="579.30" shape="579.30,814.40 0.00,814.40"/>
        <lane id="edgeW_I_1" index="1" disallow="pedestrian" speed="18.59" length="579.30" shape="579.30,811.20 0.00,811.20"/>
        <lane id="edgeW_I_2" index="2" disallow="pedestrian" speed="18.59" length="579.30" shape="579.30,808.00 0.00,808.00"/>
        <lane id="edgeW_I_3" index="3" disallow="pedestrian" speed="18.59" length="579.30" shape="579.30,804.80 0.00,804.80"/>
        <lane id="edgeW_I_4" index="4" disallow="pedestrian" speed="18.59" length="579.30" shape="579.30,801.60 0.00,801.60"/>
    </edge>
    <edge id="edgeW_O" from="juncW" to="juncMain" priority="78">
        <lane id="edgeW_O_0" index="0" allow="pedestrian" speed="11.99" length="579.30" shape="0.00,785.60 579.30,785.60"/>
        <lane id="edgeW_O_1" index="1" disallow="pedestrian" speed="11.99" length="579.30" shape="0.00,788.80 579.30,788.80"/>
        <lane id="edgeW_O_2" index="2" disallow="pedestrian" speed="11.99" length="579.30" shape="0.00,792.00 579.30,792.00"/>
        <lane id="edgeW_O_3" index="3" disallow="pedestrian" speed="11.99" length="579.30" shape="0.00,795.20 579.30,795.20"/>
        <lane id="edgeW_O_4" index="4" disallow="pedestrian" speed="11.99" length="579.30" shape="0.00,798.40 579.30,798.40"/>
    </edge>

    <tlLogic id="juncMain" type="static" programID="0" offset="0">
        <phase duration="30" state="gGGGGrrrrrrrrrrrrgGGGGrrrrrrrrrrrrrGrG"/>
        <phase duration="5"  state="gGGGGrrrrrrrrrrrrgGGGGrrrrrrrrrrrrrrrr"/>
        <phase duration="5"  state="yyyyyrrrrrrrrrrrryyyyyrrrrrrrrrrrrrrrr"/>
        <phase duration="6"  state="rrrrrGGrrrrrrrrrrrrrrrGGrrrrrrrrrrrrrr"/>
        <phase duration="5"  state="rrrrryyrrrrrrrrrrrrrrryyrrrrrrrrrrrrrr"/>
        <phase duration="29" state="rrrrrrrggggGGGgggrrrrrrrggggGGGgggGrGr"/>
        <phase duration="5"  state="rrrrrrrggggGGGgggrrrrrrrggggGGGgggrrrr"/>
        <phase duration="5"  state="rrrrrrryyyyyyyyyyrrrrrrryyyyyyyyyyrrrr"/>
    </tlLogic>

    <junction id="juncE" type="priority" x="1300.00" y="800.00" incLanes="edgeE_I_0 edgeE_I_1 edgeE_I_2 edgeE_I_3 edgeE_I_4" intLanes=":juncE_0_0" shape="1300.00,800.00 1300.00,784.00 1300.00,800.00">
        <request index="0" response="0" foes="0" cont="0"/>
    </junction>
    <junction id="juncMain" type="traffic_light" x="600.00" y="800.00" incLanes="edgeN_O_0 edgeN_O_1 edgeN_O_2 edgeN_O_3 edgeN_O_4 edgeN_O_5 edgeE_O_0 edgeE_O_1 edgeE_O_2 edgeE_O_3 edgeE_O_4 edgeS_O_0 edgeS_O_1 edgeS_O_2 edgeS_O_3 edgeS_O_4 edgeS_O_5 edgeW_O_0 edgeW_O_1 edgeW_O_2 edgeW_O_3 edgeW_O_4 :juncMain_w1_0 :juncMain_w2_0 :juncMain_w3_0 :juncMain_w0_0" intLanes=":juncMain_34_0 :juncMain_1_0 :juncMain_1_1 :juncMain_1_2 :juncMain_1_3 :juncMain_35_0 :juncMain_36_0 :juncMain_37_0 :juncMain_38_0 :juncMain_39_0 :juncMain_40_0 :juncMain_11_0 :juncMain_11_1 :juncMain_11_2 :juncMain_41_0 :juncMain_42_0 :juncMain_43_0 :juncMain_44_0 :juncMain_18_0 :juncMain_18_1 :juncMain_18_2 :juncMain_18_3 :juncMain_45_0 :juncMain_46_0 :juncMain_47_0 :juncMain_48_0 :juncMain_49_0 :juncMain_50_0 :juncMain_28_0 :juncMain_28_1 :juncMain_28_2 :juncMain_51_0 :juncMain_52_0 :juncMain_53_0 :juncMain_c0_0 :juncMain_c1_0 :juncMain_c2_0 :juncMain_c3_0" shape="580.80,817.50 619.20,817.50 619.37,816.67 619.58,816.38 619.87,816.17 620.24,816.04 620.70,816.00 620.70,784.00 619.87,783.83 619.58,783.62 619.37,783.33 619.24,782.96 619.20,782.50 580.80,782.50 580.63,783.33 580.42,783.62 580.13,783.83 579.76,783.96 579.30,784.00 579.30,816.00 580.13,816.17 580.42,816.38 580.63,816.67 580.76,817.04">
        <request index="0"  response="10010000000000000000000000000000000000" foes="10010000000000000000000000000000000000" cont="1"/>
        <request index="1"  response="01010110001111000000001100000000000000" foes="01010111111111010000001111100000000000" cont="0"/>
        <request index="2"  response="01010110001111000000001100000000000000" foes="01010111111111010000001111100000000000" cont="0"/>
        <request index="3"  response="01010110001111000000001100000000000000" foes="01010111111111010000001111100000000000" cont="0"/>
        <request index="4"  response="01010110001111000000001100000000000000" foes="01010111111111010000001111100000000000" cont="0"/>
        <request index="5"  response="00110110000000001111001100000000000000" foes="00110111110000001111011111100000000000" cont="1"/>
        <request index="6"  response="00010110000000000000000000000000000000" foes="00010110000000000000000000000000000000" cont="1"/>
        <request index="7"  response="00110000000000001111000000000000000000" foes="00110000000000001111000000001000000000" cont="1"/>
        <request index="8"  response="00110000000000001111000000000000000000" foes="00110000000000001111000000010000000000" cont="1"/>
        <request index="9"  response="00110000000000001111000000000010000000" foes="00110000000000001111000000000010000000" cont="1"/>
        <request index="10" response="00110000000000001111000000000100000000" foes="00110000000000001111000000000100000000" cont="1"/>
        <request index="11" response="10100000000000011111000000000000111110" foes="10101110000000011111000000000000111110" cont="0"/>
        <request index="12" response="10100000000000011111000000000000111110" foes="10101110000000011111000000000000111110" cont="0"/>
        <request index="13" response="10100000000000011111000000000000111110" foes="10101110000000011111000000000000111110" cont="0"/>
        <request index="14" response="01100001110000011111000000000000111110" foes="01100001110000111111000000000000111110" cont="1"/>
        <request index="15" response="01100001110000011111000000000000111110" foes="01100001110000111111000000000000111110" cont="1"/>
        <request index="16" response="00100001110000000000000000000000100000" foes="00100001110000000000000000000000100000" cont="1"/>
        <request index="17" response="01100000000000000000000000000000000000" foes="01100000000000000000000000000000000000" cont="1"/>
        <request index="18" response="01010110000000000000001100011110000000" foes="01010111110000000000001111111110100000" cont="0"/>
        <request index="19" response="01010110000000000000001100011110000000" foes="01010111110000000000001111111110100000" cont="0"/>
        <request index="20" response="01010110000000000000001100011110000000" foes="01010111110000000000001111111110100000" cont="0"/>
        <request index="21" response="01010110000000000000001100011110000000" foes="01010111110000000000001111111110100000" cont="0"/>
        <request index="22" response="11000110000000000000001100000000011110" foes="11001111110000000000001111100000011110" cont="1"/>
        <request index="23" response="01000000000000000000001100000000000000" foes="01000000000000000000001100000000000000" cont="1"/>
        <request index="24" response="11000000000000000000000000000000011110" foes="11000000000100000000000000000000011110" cont="1"/>
        <request index="25" response="11000000000000000000000000000000011110" foes="11000000001000000000000000000000011110" cont="1"/>
        <request index="26" response="11000000000001000000000000000000011110" foes="11000000000001000000000000000000011110" cont="1"/>
        <request index="27" response="11000000000010000000000000000000011110" foes="11000000000010000000000000000000011110" cont="1"/>
        <request index="28" response="10100000000000011111000000000000111110" foes="10100000000000011111011100000000111110" cont="0"/>
        <request index="29" response="10100000000000011111000000000000111110" foes="10100000000000011111011100000000111110" cont="0"/>
        <request index="30" response="10100000000000011111000000000000111110" foes="10100000000000011111011100000000111110" cont="0"/>
        <request index="31" response="10010000000000011111000011100000111110" foes="10010000000000011111000011100001111110" cont="1"/>
        <request index="32" response="10010000000000011111000011100000111110" foes="10010000000000011111000011100001111110" cont="1"/>
        <request index="33" response="10000000000000010000000011100000000000" foes="10000000000000010000000011100000000000" cont="1"/>
        <request index="34" response="00000000000000000000000000000000000000" foes="00000110000000001111000000011111111111" cont="0"/>
        <request index="35" response="00000000000000000000000000000000000000" foes="00000001110000000000111111111110100000" cont="0"/>
        <request index="36" response="00000000000000000000000000000000000000" foes="00000000001111111111101100000000011110" cont="0"/>
        <request index="37" response="00000000000000000000000000000000000000" foes="00001111111111010000000011100000000001" cont="0"/>
    </junction>
    <junction id="juncN" type="priority" x="600.00" y="1600.00" incLanes="edgeN_I_0 edgeN_I_1 edgeN_I_2 edgeN_I_3 edgeN_I_4 edgeN_I_5" intLanes=":juncN_0_0" shape="600.00,1600.00 619.20,1600.00 600.00,1600.00">
        <request index="0" response="0" foes="0" cont="0"/>
    </junction>
    <junction id="juncS" type="priority" x="600.00" y="0.00" incLanes="edgeS_I_0 edgeS_I_1 edgeS_I_2 edgeS_I_3 edgeS_I_4 edgeS_I_5" intLanes=":juncS_0_0" shape="600.00,0.00 580.80,0.00 600.00,0.00">
        <request index="0" response="0" foes="0" cont="0"/>
    </junction>
    <junction id="juncW" type="priority" x="0.00" y="800.00" incLanes="edgeW_I_0 edgeW_I_1 edgeW_I_2 edgeW_I_3 edgeW_I_4" intLanes=":juncW_0_0" shape="0.00,800.00 0.00,816.00 0.00,800.00">
        <request index="0" response="0" foes="0" cont="0"/>
    </junction>

    <junction id=":juncMain_34_0" type="internal" x="583.80" y="812.64" incLanes=":juncMain_0_0" intLanes=":juncMain_11_0 :juncMain_11_1 :juncMain_11_2 :juncMain_22_0 :juncMain_33_0 :juncMain_c0_0 :juncMain_c3_0"/>