<routes>
   <personFlow id="pRegN" begin="0" end="3000" personsPerHour="393.707319">
        <walk edges="edgeN_O edgeS_I" speed="1.896777"/>
    </personFlow>
   <personFlow id="pRegS" begin="0" end="3000" personsPerHour="935.640040">
        <walk edges="edgeS_O edgeN_I" speed="2.110950"/>
    </personFlow>
   <personFlow id="pRegW" begin="0" end="3000" personsPerHour="205.608582">
        <walk edges="edgeW_O edgeE_I" speed="1.829849"/>
    </personFlow>
   <personFlow id="pRegE" begin="0" end="3000" personsPerHour="742.354770">
        <walk edges="edgeE_O edgeW_I" speed="1.149341"/>
    </personFlow>
   <personFlow id="pOppN" begin="0" end="3000" personsPerHour="1031.253264" departPos="400.000000">
        <walk edges="edgeN_I edgeS_O" speed="1.957368"/>
    </personFlow>
   <personFlow id="pOppS" begin="0" end="3000" personsPerHour="162.014284" departPos="800.000000">
        <walk edges="edgeS_I edgeN_O" speed="1.921930"/>
    </personFlow>
   <personFlow id="pOppW" begin="0" end="3000" personsPerHour="599.612302" departPos="300.000000">
        <walk edges="edgeW_I edgeE_O" speed="1.696593"/>
    </personFlow>
   <personFlow id="pOppE" begin="0" end="3000" personsPerHour="373.006777" departPos="300.000000">
        <walk edges="edgeE_I edgeW_O" speed="1.985568"/>
    </personFlow>

    <route id="edgeN_edgeN" edges="edgeN_O edgeN_I" />
    <route id="edgeN_edgeS" edges="edgeN_O edgeS_I" />
    <route id="edgeN_edgeW" edges="edgeN_O edgeW_I" />
    <route id="edgeN_edgeE" edges="edgeN_O edgeE_I" />
    <route id="edgeS_edgeN" edges="edgeS_O edgeN_I" />
    <route id="edgeS_edgeS" edges="edgeS_O edgeS_I" />
    <route id="edgeS_edgeW" edges="edgeS_O edgeW_I" />
    <route id="edgeS_edgeE" edges="edgeS_O edgeE_I" />
    <route id="edgeW_edgeN" edges="edgeW_O edgeN_I" />
    <route id="edgeW_edgeS" edges="edgeW_O edgeS_I" />
    <route id="edgeW_edgeW" edges="edgeW_O edgeW_I" />
    <route id="edgeW_edgeE" edges="edgeW_O edgeE_I" />
    <route id="edgeE_edgeN" edges="edgeE_O edgeN_I" />
    <route id="edgeE_edgeS" edges="edgeE_O edgeS_I" />
    <route id="edgeE_edgeW" edges="edgeE_O edgeW_I" />
    <route id="edgeE_edgeE" edges="edgeE_O edgeE_I" />
    
   <vType id="vehicleS_0" length="4.340000" accel="3.417000" decel="5.462000" sigma="0.5" minGap="2.404760" maxSpeed="146.331817" guiShape="passenger" />
   <vehicle id="straightS_0" type="vehicleS_0" route="edgeS_edgeN" depart="0" departLane="1" />

   <vType id="vehicleE_1" length="4.356000" accel="3.187000" decel="5.108000" sigma="0.5" minGap="2.404760" maxSpeed="146.331817" guiShape="passenger" />
   <vehicle id="straightE_1" type="vehicleE_1" route="edgeE_edgeW" depart="0" departLane="4" />

   <vType id="vehicleE_2" length="5.139000" accel="2.740000" decel="3.866000" sigma="0.5" minGap="2.404760" maxSpeed="146.331817" guiShape="passenger" />
   <vehicle id="straightE_2" type="vehicleE_2" route="edgeE_edgeW" depart="1" departLane="3" />

   <vType id="vehicleN_3" length="4.569000" accel="2.746000" decel="4.200000" sigma="0.5" minGap="2.404760" maxSpeed="146.331817" guiShape="passenger" />
   <vehicle id="straightN_3" type="vehicleN_3" route="edgeN_edgeS" depart="2" departLane="1" />

   <vType id="vehicleE_4" length="4.452000" accel="2.294000" decel="4.103000" sigma="0.5" minGap="2.404760" maxSpeed="146.331817" guiShape="passenger" />
   <vehicle id="straightE_4" type="vehicleE_4" route="edgeE_edgeW" depart="4" departLane="1" />

   <vType id="vehicleE_5" length="5.092000" accel="3.357000" decel="5.483000" sigma="0.5" minGap="2.404760" maxSpeed="146.331817" guiShape="passenger" />
   <vehicle id="straightE_5" type="vehicleE_5" route="edgeE_edgeW" depart="5" departLane="1" />

   <vType id="vehicleS_6" length="4.240000" accel="2.807000" decel="6.419000" sigma="0.5" minGap="2.404760" maxSpeed="146.331817" guiShape="passenger" />
   <vehicle id="straightS_6" type="vehicleS_6" route="edgeS_edgeN" depart="6" departLane="1" />

   <vType id="vehicleW_7" length="4.415000" accel="2.519000" decel="6.277000" sigma="0.5" minGap="2.404760" maxSpeed="146.331817" guiShape="passenger" />
   <vehicle id="straightW_7" type="vehicleW_7" route="edgeW_edgeE" depart="7" departLane="3" />

   <vType id="vehicleE_8" length="5.218000" accel="3.079000" decel="5.677000" sigma="0.5" minGap="2.404760" maxSpeed="146.331817" guiShape="passenger" />
   <vehicle id="straightE_8" type="vehicleE_8" route="edgeE_edgeW" depart="8" departLane="4" />

   <vType id="vehicleW_9" length="4.822000" accel="2.313000" decel="3.534000" sigma="0.5" minGap="2.404760" maxSpeed="146.331817" guiShape="passenger" />
   <vehicle id="uturnW_9" type="vehicleW_9" route="edgeW_edgeW" depart="9" departLane="4" />

   <vType id="vehicleE_10" length="5.297000" accel="2.880000" decel="3.584000" sigma="0.5" minGap="2.404760" maxSpeed="146.331817" guiShape="passenger" />
   <vehicle id="straightE_10" type="vehicleE_10" route="edgeE_edgeW" depart="9" departLane="4" />

   <vType id="vehicleW_11" length="5.550000" accel="3.321000" decel="3.741000" sigma="0.5" minGap="2.404760" maxSpeed="146.331817" guiShape="passenger" />
   <vehicle id="straightW_11" type="vehicleW_11" route="edgeW_edgeE" depart="10" departLane="3" />

   <vType id="vehicleW_12" length="5.179000" accel="3.388000" decel="6.365000" sigma="0.5" minGap="2.404760" maxSpeed="146.331817" guiShape="passenger" />
   <vehicle id="leftW_12" type="vehicleW_12" route="edgeW_edgeN" depart="11" departLane="4" />

   <vType id="vehicleN_13" length="5.380000" accel="3.026000" decel="3.999000" sigma="0.5" minGap="2.404760" maxSpeed="146.331817" guiShape="passenger" />
   <vehicle id="straightN_13" type="vehicleN_13" route="edgeN_edgeS" depart="12" departLane="1" />

   <vType id="vehicleS_14" length="3.998000" accel="3.746000" decel="6.080000" sigma="0.5" minGap="2.404760" maxSpeed="146.331817" guiShape="passenger" />
   <vehicle id="straightS_14" type="vehicleS_14" route="edgeS_edgeN" depart="13" departLane="1" />

   <vType id="vehicleW_15" length="4.919000" accel="2.293000" decel="5.631000" sigma="0.5" minGap="2.404760" maxSpeed="146.331817" guiShape="passenger" />
   <vehicle id="straightW_15" type="vehicleW_15" route="edgeW_edgeE" depart="13" departLane="1" />

   <vType id="vehicleS_16" length="5.557000" accel="2.440000" decel="5.005000" sigma="0.5" minGap="2.404760" maxSpeed="146.331817" guiShape="passenger" />
   <vehicle id="straightS_16" type="vehicleS_16" route="edgeS_edgeN" depart="14" departLane="1" />

   <vType id="vehicleS_17" length="4.897000" accel="3.164000" decel="3.412000" sigma="0.5" minGap="2.404760" maxSpeed="146.331817" guiShape="passenger" />
   <vehicle id="straightS_17" type="vehicleS_17" route="edgeS_edgeN" depart="17" departLane="1" />

   <vType id="vehicleW_18" length="5.411000" accel="2.279000" decel="4.118000" sigma="0.5" minGap="2.404760" maxSpeed="146.331817" guiShape="passenger" />
   <vehicle id="straightW_18" type="vehicleW_18" route="edgeW_edgeE" depart="17" departLane="4" />

   <vType id="vehicleN_19" length="4.925000" accel="2.966000" decel="5.792000" sigma="0.5" minGap="2.404760" maxSpeed="146.331817" guiShape="passenger" />
   <vehicle id="straightN_19" type="vehicleN_19" route="edgeN_edgeS" depart="18" departLane="1" />

   <vType id="vehicleW_20" length="4.677000" accel="2.956000" decel="5.622000" sigma="0.5" minGap="2.404760" maxSpeed="146.331817" guiShape="passenger" />
   <vehicle id="straightW_20" type="vehicleW_20" route="edgeW_edgeE" depart="18" departLane="1" />

   <vType id="vehicleE_21" length="5.311000" accel="2.345000" decel="3.976000" sigma="0.5" minGap="2.404760" maxSpeed="146.331817" guiShape="passenger" />
   <vehicle id="straightE_21" type="vehicleE_21" route="edgeE_edgeW" depart="18" departLane="4" />

   <vType id="vehicleN_22" length="4.743000" accel="3.653000" decel="3.621000" sigma="0.5" minGap="2.404760" maxSpeed="146.331817" guiShape="passenger" />
   <vehicle id="straightN_22" type="vehicleN_22" route="edgeN_edgeS" depart="19" departLane="1" />

   <vType id="vehicleS_23" length="5.371000" accel="3.814000" decel="6.226000" sigma="0.5" minGap="2.404760" maxSpeed="146.331817" guiShape="passenger" />
   <vehicle id="straightS_23" type="vehicleS_23" route="edgeS_edgeN" depart="19" departLane="1" />

   <vType id="vehicleW_24" length="4.325000" accel="2.843000" decel="3.569000" sigma="0.5" minGap="2.404760" maxSpeed="146.331817" guiShape="passenger" />
   <vehicle id="straightW_24" type="vehicleW_24" route="edgeW_edgeE" depart="19" departLane="4" />

   <vType id="vehicleE_25" length="5.523000" accel="3.500000" decel="4.263000" sigma="0.5" minGap="2.404760" maxSpeed="146.331817" guiShape="passenger" />
   <vehicle id="straightE_25" type="vehicleE_25" route="edgeE_edgeW" depart="19" departLane="4" />

   <vType id="vehicleN_26" length="5.594000" accel="3.148000" decel="5.050000" sigma="0.5" minGap="2.404760" maxSpeed="146.331817" guiShape="passenger" />
   <vehicle id="straightN_26" type="vehicleN_26" route="edgeN_edgeS" depart="20" departLane="1" />

   <vType id="vehicleS_27" length="4.811000" accel="3.615000" decel="3.872000" sigma="0.5" minGap="2.404760" maxSpeed="146.331817" guiShape="passenger" />
   <vehicle id="straightS_27" type="vehicleS_27" route="edgeS_edgeN" depart="20" departLane="1" />

   <vType id="vehicleE_28" length="5.414000" accel="2.848000" decel="6.273000" sigma="0.5" minGap="2.404760" maxSpeed="146.331817" guiShape="passenger" />
   <vehicle id="straightE_28" type="vehicleE_28" route="edgeE_edgeW" depart="20" departLane="2" />

   <vType id="vehicleS_29" length="5.071000" accel="3.124000" decel="4.358000" sigma="0.5" minGap="2.404760" maxSpeed="146.331817" guiShape="passenger" />
   <vehicle id="straightS_29" type="vehicleS_29" route="edgeS_edgeN" depart="21" departLane="1" />

   <vType id="vehicleW_30" length="4.366000" accel="2.834000" decel="5.446000" sigma="0.5" minGap="2.404760" maxSpeed="146.331817" guiShape="passenger" />
   <vehicle id="straightW_30" type="vehicleW_30" route="edgeW_edgeE" depart="21" departLane="3" />

   <vType id="vehicleW_31" length="4.912000" accel="2.329000" decel="5.036000" sigma="0.5" minGap="2.404760" maxSpeed="146.331817" guiShape="passenger" />
   <vehicle id="straightW_31" type="vehicleW_31" route="edgeW_edgeE" depart="22" departLane="3" />

   <vType id="vehicleE_32" length="4.081000" accel="2.576000" decel="4.262000" sigma="0.5" minGap="2.404760" maxSpeed="146.331817" guiShape="passenger" />
   <vehicle id="straightE_32" type="vehicleE_32" route="edgeE_edgeW" depart="22" departLane="4" />

   <vType id="vehicleS_33" length="4.469000" accel="3.292000" decel="6.264000" sigma="0.5" minGap="2.404760" maxSpeed="146.331817" guiShape="passenger" />
   <vehicle id="straightS_33" type="vehicleS_33" route="edgeS_edgeN" depart="24" departLane="1" />

   <vType id="vehicleW_34" length="5.214000" accel="2.424000" decel="4.252000" sigma="0.5" minGap="2.404760" maxSpeed="146.331817" guiShape="passenger" />
   <vehicle id="straightW_34" type="vehicleW_34" route="edgeW_edgeE" depart="24" departLane="2" />

   <vType id="vehicleW_35" length="5.487000" accel="3.604000" decel="3.672000" sigma="0.5" minGap="2.404760" maxSpeed="146.331817" guiShape="passenger" />
   <vehicle id="straightW_35" type="vehicleW_35" route="edgeW_edgeE" depart="25" departLane="4" />

   <vType id="vehicleN_36" length="4.185000" accel="3.833000" decel="3.885000" sigma="0.5" minGap="2.404760" maxSpeed="146.331817" guiShape="passenger" />
   <vehicle id="straightN_36" type="vehicleN_36" route="edgeN_edgeS" depart="26" departLane="1" />

   <vType id="vehicleE_37" length="5.450000" accel="3.703000" decel="5.060000" sigma="0.5" minGap="2.404760" maxSpeed="146.331817" guiShape="passenger" />
   <vehicle id="straightE_37" type="vehicleE_37" route="edgeE_edgeW" depart="26" departLane="3" />

   <vType id="vehicleS_38" length="4.483000" accel="3.694000" decel="5.827000" sigma="0.5" minGap="2.404760" maxSpeed="146.331817" guiShape="passenger" />
   <vehicle id="straightS_38" type="vehicleS_38" route="edgeS_edgeN" depart="27" departLane="1" />

   <vType id="vehicleS_39" length="5.452000" accel="2.853000" decel="5.290000" sigma="0.5" minGap="2.404760" maxSpeed="146.331817" guiShape="passenger" />
   <vehicle id="straightS_39" type="vehicleS_39" route="edgeS_edgeN" depart="28" departLane="1" />

   <vType id="vehicleN_40" length="4.263000" accel="2.863000" decel="3.939000" sigma="0.5" minGap="2.404760" maxSpeed="146.331817" guiShape="passenger" />
   <vehicle id="straightN_40" type="vehicleN_40" route="edgeN_edgeS" depart="29" departLane="1" />

   <vType id="vehicleW_41" length="4.608000" accel="2.224000" decel="4.831000" sigma="0.5" minGap="2.404760" maxSpeed="146.331817" guiShape="passenger" />
   <vehicle id="straightW_41" type="vehicleW_41" route="edgeW_edgeE" depart="30" departLane="2" />

   <vType id="vehicleN_42" length="4.517000" accel="3.635000" decel="6.350000" sigma="0.5" minGap="2.404760" maxSpeed="146.331817" guiShape="passenger" />
   <vehicle id="straightN_42" type="vehicleN_42" route="edgeN_edgeS" depart="32" departLane="1" />

   <vType id="vehicleW_43" length="4.404000" accel="3.150000" decel="6.401000" sigma="0.5" minGap="2.404760" maxSpeed="146.331817" guiShape="passenger" />
   <vehicle id="straightW_43" type="vehicleW_43" route="edgeW_edgeE" depart="33" departLane="1" />

   <vType id="vehicleE_44" length="5.190000" accel="2.694000" decel="5.246000" sigma="0.5" minGap="2.404760" maxSpeed="146.331817" guiShape="passenger" />
   <vehicle id="straightE_44" type="vehicleE_44" route="edgeE_edgeW" depart="33" departLane="1" />

   <vType id="vehicleW_45" length="3.968000" accel="3.740000" decel="5.038000" sigma="0.5" minGap="2.404760" maxSpeed="146.331817" guiShape="passenger" />
   <vehicle id="straightW_45" type="vehicleW_45" route="edgeW_edgeE" depart="34" departLane="2" />

   <vType id="vehicleN_46" length="4.520000" accel="2.695000" decel="5.986000" sigma="0.5" minGap="2.404760" maxSpeed="146.331817" guiShape="passenger" />
   <vehicle id="straightN_46" type="vehicleN_46" route="edgeN_edgeS" depart="35" departLane="1" />

   <vType id="vehicleW_47" length="4.603000" accel="3.437000" decel="3.923000" sigma="0.5" minGap="2.404760" maxSpeed="146.331817" guiShape="passenger" />
   <vehicle id="straightW_47" type="vehicleW_47" route="edgeW_edgeE" depart="36" departLane="3" />

   <vType id="vehicleW_48" length="4.985000" accel="2.709000" decel="4.742000" sigma="0.5" minGap="2.404760" maxSpeed="146.331817" guiShape="passenger" />
   <vehicle id="straightW_48" type="vehicleW_48" route="edgeW_edgeE" depart="37" departLane="2" />

   <vType id="vehicleE_49" length="4.360000" accel="2.689000" decel="5.859000" sigma="0.5" minGap="2.404760" maxSpeed="146.331817" guiShape="passenger" />
   <vehicle id="straightE_49" type="vehicleE_49" route="edgeE_edgeW" depart="39" departLane="2" />

   <vType id="vehicleN_50" length="4.764000" accel="3.610000" decel="3.613000" sigma="0.5" minGap="2.404760" maxSpeed="146.331817" guiShape="passenger" />
   <vehicle id="straightN_50" type="vehicleN_50" route="edgeN_edgeS" depart="40" departLane="1" />

   <vType id="vehicleW_51" length="5.466000" accel="3.629000" decel="6.101000" sigma="0.5" minGap="2.404760" maxSpeed="146.331817" guiShape="passenger" />
   <vehicle id="straightW_51" type="vehicleW_51" route="edgeW_edgeE" depart="41" departLane="4" />

   <vType id="vehicleS_52" length="4.746000" accel="3.066000" decel="5.101000" sigma="0.5" minGap="2.404760" maxSpeed="146.331817" guiShape="passenger" />
   <vehicle id="straightS_52" type="vehicleS_52" route="edgeS_edgeN" depart="43" departLane="1" />

   <vType id="vehicleW_53" length="4.446000" accel="2.622000" decel="4.369000" sigma="0.5" minGap="2.404760" maxSpeed="146.331817" guiShape="passenger" />
   <vehicle id="straightW_53" type="vehicleW_53" route="edgeW_edgeE" depart="47" departLane="1" />

   <vType id="vehicleE_54" length="5.132000" accel="3.365000" decel="3.586000" sigma="0.5" minGap="2.404760" maxSpeed="146.331817" guiShape="passenger" />
   <vehicle id="straightE_54" type="vehicleE_54" route="edgeE_edgeW" depart="47" departLane="4" />

   <vType id="vehicleW_55" length="4.620000" accel="3.474000" decel="6.286000" sigma="0.5" minGap="2.404760" maxSpeed="146.331817" guiShape="passenger" />
   <vehicle id="straightW_55" type="vehicleW_55" route="edgeW_edgeE" depart="48" departLane="1" />

   <vType id="vehicleW_56" length="5.232000" accel="3.617000" decel="6.309000" sigma="0.5" minGap="2.404760" maxSpeed="146.331817" guiShape="passenger" />
   <vehicle id="straightW_56" type="vehicleW_56" route="edgeW_edgeE" depart="49" departLane="4" />

   <vType id="vehicleS_57" length="5.423000" accel="2.469000" decel="4.186000" sigma="0.5" minGap="2.404760" maxSpeed="146.331817" guiShape="passenger" />
   <vehicle id="straightS_57" type="vehicleS_57" route="edgeS_edgeN" depart="54" departLane="1" />

   <vType id="vehicleW_58" length="5.245000" accel="2.806000" decel="5.692000" sigma="0.5" minGap="2.404760" maxSpeed="146.331817" guiShape="passenger" />
   <vehicle id="straightW_58" type="vehicleW_58" route="edgeW_edgeE" depart="54" departLane="4" />

   <vType id="vehicleN_59" length="4.872000" accel="3.867000" decel="4.461000" sigma="0.5" minGap="2.404760" maxSpeed="146.331817" guiShape="passenger" />
   <vehicle id="straightN_59" type="vehicleN_59" route="edgeN_edgeS" depart="55" departLane="1" />

   <vType id="vehicleW_60" length="4.177000" accel="3.302000" decel="5.116000" sigma="0.5" minGap="2.404760" maxSpeed="146.331817" guiShape="passenger" />
   <vehicle id="straightW_60" type="vehicleW_60" route="edgeW_edgeE" depart="56" departLane="2" />

   <vType id="vehicleW_61" length="4.938000" accel="3.746000" decel="5.153000" sigma="0.5" minGap="2.404760" maxSpeed="146.331817" guiShape="passenger" />
   <vehicle id="straightW_61" type="vehicleW_61" route="edgeW_edgeE" depart="58" departLane="4" />

   <vType id="vehicleS_62" length="5.020000" accel="2.332000" decel="5.755000" sigma="0.5" minGap="2.404760" maxSpeed="146.331817" guiShape="passenger" />
   <vehicle id="straightS_62" type="vehicleS_62" route="edgeS_edgeN" depart="59" departLane="1" />

   <vType id="vehicleN_63" length="5.077000" accel="2.276000" decel="5.372000" sigma="0.5" minGap="2.404760" maxSpeed="146.331817" guiShape="passenger" />
   <vehicle id="straightN_63" type="vehicleN_63" route="edgeN_edgeS" depart="60" departLane="1" />

   <vType id="vehicleE_64" length="5.034000" accel="3.574000" decel="5.555000" sigma="0.5" minGap="2.404760" maxSpeed="146.331817" guiShape="passenger" />
   <vehicle id="straightE_64" type="vehicleE_64" route="edgeE_edgeW" depart="60" departLane="4" />

   <vType id="vehicleN_65" length="5.059000" accel="3.211000" decel="6.205000" sigma="0.5" minGap="2.404760" maxSpeed="146.331817" guiShape="passenger" />
   <vehicle id="straightN_65" type="vehicleN_65" route="edgeN_edgeS" depart="61" departLane="1" />

   <vType id="vehicleW_66" length="4.562000" accel="2.600000" decel="4.246000" sigma="0.5" minGap="2.404760" maxSpeed="146.331817" guiShape="passenger" />
   <vehicle id="straightW_66" type="vehicleW_66" route="edgeW_edgeE" depart="64" departLane="3" />

   <vType id="vehicleW_67" length="4.899000" accel="2.569000" decel="4.847000" sigma="0.5" minGap="2.404760" maxSpeed="146.331817" guiShape="passenger" />
   <vehicle id="straightW_67" type="vehicleW_67" route="edgeW_edgeE" depart="65" departLane="4" />

   <vType id="vehicleN_68" length="4.645000" accel="2.574000" decel="5.423000" sigma="0.5" minGap="2.404760" maxSpeed="146.331817" guiShape="passenger" />
   <vehicle id="straightN_68" type="vehicleN_68" route="edgeN_edgeS" depart="66" departLane="1" />

   <vType id="vehicleS_69" length="4.166000" accel="3.074000" decel="5.723000" sigma="0.5" minGap="2.404760" maxSpeed="146.331817" guiShape="passenger" />
   <vehicle id="straightS_69" type="vehicleS_69" route="edgeS_edgeN" depart="68" departLane="1" />

   <vType id="vehicleW_70" length="4.430000" accel="3.166000" decel="5.717000" sigma="0.5" minGap="2.404760" maxSpeed="146.331817" guiShape="passenger" />
   <vehicle id="straightW_70" type="vehicleW_70" route="edgeW_edgeE" depart="68" departLane="3" />

   <vType id="vehicleS_71" length="4.057000" accel="2.657000" decel="6.280000" sigma="0.5" minGap="2.404760" maxSpeed="146.331817" guiShape="passenger" />
   <vehicle id="straightS_71" type="vehicleS_71" route="edgeS_edgeN" depart="70" departLane="1" />

   <vType id="vehicleW_72" length="4.443000" accel="2.976000" decel="4.433000" sigma="0.5" minGap="2.404760" maxSpeed="146.331817" guiShape="passenger" />
   <vehicle id="leftW_72" type="vehicleW_72" route="edgeW_edgeN" depart="70" departLane="4" />

   <vType id="vehicleS_73" length="4.792000" accel="3.144000" decel="5.491000" sigma="0.5" minGap="2.404760" maxSpeed="146.331817" guiShape="passenger" />
   <vehicle id="straightS_73" type="vehicleS_73" route="edgeS_edgeN" depart="71" departLane="1" />

   <vType id="vehicleW_74" length="4.476000" accel="3.857000" decel="3.752000" sigma="0.5" minGap="2.404760" maxSpeed="146.331817" guiShape="passenger" />
   <vehicle id="straightW_74" type="vehicleW_74" route="edgeW_edgeE" depart="71" departLane="4" />

   <vType id="vehicleE_75" length="4.091000" accel="2.163000" decel="4.769000" sigma="0.5" minGap="2.404760" maxSpeed="146.331817" guiShape="passenger" />
   <vehicle id="straightE_75" type="vehicleE_75" route="edgeE_edgeW" depart="75" departLane="4" />

   <vType id="vehicleN_76" length="4.482000" accel="3.438000" decel="5.132000" sigma="0.5" minGap="2.404760" maxSpeed="146.331817" guiShape="passenger" />
   <vehicle id="straightN_76" type="vehicleN_76" route="edgeN_edgeS" depart="80" departLane="1" />

   <vType id="vehicleN_77" length="5.099000" accel="3.629000" decel="5.187000" sigma="0.5" minGap="2.404760" maxSpeed="146.331817" guiShape="passenger" />
   <vehicle id="straightN_77" type="vehicleN_77" route="edgeN_edgeS" depart="83" departLane="1" />

   <vType id="vehicleN_78" length="4.756000" accel="3.271000" decel="6.194000" sigma="0.5" minGap="2.404760" maxSpeed="146.331817" guiShape="passenger" />
   <vehicle id="straightN_78" type="vehicleN_78" route="edgeN_edgeS" depart="84" departLane="1" />

   <vType id="vehicleN_79" length="4.657000" accel="3.005000" decel="5.418000" sigma="0.5" minGap="2.404760" maxSpeed="146.331817" guiShape="passenger" />
   <vehicle id="straightN_79" type="vehicleN_79" route="edgeN_edgeS" depart="86" departLane="1" />

   <vType id="vehicleW_80" length="5.525000" accel="2.907000" decel="5.528000" sigma="0.5" minGap="2.404760" maxSpeed="146.331817" guiShape="passenger" />
   <vehicle id="straightW_80" type="vehicleW_80" route="edgeW_edgeE" depart="90" departLane="1" />

   <vType id="vehicleE_81" length="5.309000" accel="3.371000" decel="4.341000" sigma="0.5" minGap="2.404760" maxSpeed="146.331817" guiShape="passenger" />
   <vehicle id="straightE_81" type="vehicleE_81" route="edgeE_edgeW" depart="90" departLane="1" />

   <vType id="vehicleS_82" length="5.500000" accel="2.947000" decel="3.749000" sigma="0.5" minGap="2.404760" maxSpeed="146.331817" guiShape="passenger" />
   <vehicle id="straightS_82" type="vehicleS_82" route="edgeS_edgeN" depart="91" departLane="1" />

   <vType id="vehicleW_83" length="5.645000" accel="2.995000" decel="3.845000" sigma="0.5" minGap="2.404760" maxSpeed="146.331817" guiShape="passenger" />
   <vehicle id="straightW_83" type="vehicleW_83" route="edgeW_edgeE" depart="96" departLane="4" />

   <vType id="vehicleN_84" length="4.927000" accel="2.557000" decel="5.764000" sigma="0.5" minGap="2.404760" maxSpeed="146.331817" guiShape="passenger" />
   <vehicle id="straightN_84" type="vehicleN_84" route="edgeN_edgeS" depart="98" departLane="1" />

   <vType id="vehicleN_85" length="4.177000" accel="3.808000" decel="4.406000" sigma="0.5" minGap="2.404760" maxSpeed="146.331817" guiShape="passenger" />
   <vehicle id="straightN_85" type="vehicleN_85" route="edgeN_edgeS" depart="100" departLane="1" />

   <vType id="vehicleN_86" length="5.595000" accel="2.737000" decel="5.511000" sigma="0.5" minGap="2.404760" maxSpeed="146.331817" guiShape="passenger" />
   <vehicle id="straightN_86" type="vehicleN_86" route="edgeN_edgeS" depart="102" departLane="1" />

   <vType id="vehicleS_87" length="5.026000" accel="3.732000" decel="6.443000" sigma="0.5" minGap="2.404760" maxSpeed="146.331817" guiShape="passenger" />
   <vehicle id="straightS_87" type="vehicleS_87" route="edgeS_edgeN" depart="104" departLane="1" />

   <vType id="vehicleE_88" length="5.432000" accel="2.916000" decel="5.515000" sigma="0.5" minGap="2.404760" maxSpeed="146.331817" guiShape="passenger" />
   <vehicle id="straightE_88" type="vehicleE_88" route="edgeE_edgeW" depart="104" departLane="1" />

   <vType id="vehicleN_89" length="4.458000" accel="2.799000" decel="3.835000" sigma="0.5" minGap="2.404760" maxSpeed="146.331817" guiShape="passenger" />
   <vehicle id="straightN_89" type="vehicleN_89" route="edgeN_edgeS" depart="105" departLane="1" />

   <vType id="vehicleE_90" length="5.429000" accel="3.217000" decel="4.127000" sigma="0.5" minGap="2.404760" maxSpeed="146.331817" guiShape="passenger" />
   <vehicle id="straightE_90" type="vehicleE_90" route="edgeE_edgeW" depart="105" departLane="2" />

   <vType id="vehicleW_91" length="4.089000" accel="3.773000" decel="6.414000" sigma="0.5" minGap="2.404760" maxSpeed="146.331817" guiShape="passenger" />
   <vehicle id="straightW_91" type="vehicleW_91" route="edgeW_edgeE" depart="107" departLane="3" />

   <vType id="vehicleW_92" length="4.932000" accel="3.855000" decel="4.294000" sigma="0.5" minGap="2.404760" maxSpeed="146.331817" guiShape="passenger" />
   <vehicle id="straightW_92" type="vehicleW_92" route="edgeW_edgeE" depart="109" departLane="4" />

   <vType id="vehicleE_93" length="4.800000" accel="3.703000" decel="4.266000" sigma="0.5" minGap="2.404760" maxSpeed="146.331817" guiShape="passenger" />
   <vehicle id="straightE_93" type="vehicleE_93" route="edgeE_edgeW" depart="110" departLane="2" />

   <vType id="vehicleE_94" length="5.222000" accel="2.458000" decel="3.794000" sigma="0.5" minGap="2.404760" maxSpeed="146.331817" guiShape="passenger" />
   <vehicle id="straightE_94" type="vehicleE_94" route="edgeE_edgeW" depart="114" departLane="3" />

   <vType id="vehicleS_95" length="4.202000" accel="3.810000" decel="6.023000" sigma="0.5" minGap="2.404760" maxSpeed="146.331817" guiShape="passenger" />
   <vehicle id="straightS_95" type="vehicleS_95" route="edgeS_edgeN" depart="117" departLane="1" />

   <vType id="vehicleW_96" length="4.730000" accel="3.308000" decel="5.448000" sigma="0.5" minGap="2.404760" maxSpeed="146.331817" guiShape="passenger" />
   <vehicle id="straightW_96" type="vehicleW_96" route="edgeW_edgeE" depart="118" departLane="4" />

   <vType id="vehicleS_97" length="4.007000" accel="3.669000" decel="5.109000" sigma="0.5" minGap="2.404760" maxSpeed="146.331817" guiShape="passenger" />
   <vehicle id="straightS_97" type="vehicleS_97" route="edgeS_edgeN" depart="119" departLane="1" />

   <vType id="vehicleE_98" length="4.028000" accel="3.860000" decel="3.745000" sigma="0.5" minGap="2.404760" maxSpeed="146.331817" guiShape="passenger" />
   <vehicle id="straightE_98" type="vehicleE_98" route="edgeE_edgeW" depart="120" departLane="2" />

   <vType id="vehicleS_99" length="5.093000" accel="3.428000" decel="6.286000" sigma="0.5" minGap="2.404760" maxSpeed="146.331817" guiShape="passenger" />
   <vehicle id="straightS_99" type="vehicleS_99" route="edgeS_edgeN" depart="121" departLane="1" />

   <vType id="vehicleE_100" length="5.593000" accel="3.780000" decel="5.913000" sigma="0.5" minGap="2.404760" maxSpeed="146.331817" guiShape="passenger" />
   <vehicle id="straightE_100" type="vehicleE_100" route="edgeE_edgeW" depart="125" departLane="1" />

   <vType id="vehicleE_101" length="4.375000" accel="2.373000" decel="5.118000" sigma="0.5" minGap="2.404760" maxSpeed="146.331817" guiShape="passenger" />
   <vehicle id="straightE_101" type="vehicleE_101" route="edgeE_edgeW" depart="126" departLane="1" />

   <vType id="vehicleS_102" length="4.187000" accel="2.770000" decel="5.804000" sigma="0.5" minGap="2.404760" maxSpeed="146.331817" guiShape="passenger" />
   <vehicle id="straightS_102" type="vehicleS_102" route="edgeS_edgeN" depart="130" departLane="1" />

   <vType id="vehicleW_103" length="4.178000" accel="2.877000" decel="3.738000" sigma="0.5" minGap="2.404760" maxSpeed="146.331817" guiShape="passenger" />
   <vehicle id="straightW_103" type="vehicleW_103" route="edgeW_edgeE" depart="130" departLane="1" />

   <vType id="vehicleW_104" length="5.555000" accel="2.232000" decel="5.788000" sigma="0.5" minGap="2.404760" maxSpeed="146.331817" guiShape="passenger" />
   <vehicle id="straightW_104" type="vehicleW_104" route="edgeW_edgeE" depart="131" departLane="3" />

   <vType id="vehicleS_105" length="4.640000" accel="3.331000" decel="4.891000" sigma="0.5" minGap="2.404760" maxSpeed="146.331817" guiShape="passenger" />
   <vehicle id="straightS_105" type="vehicleS_105" route="edgeS_edgeN" depart="132" departLane="1" />

   <vType id="vehicleW_106" length="4.988000" accel="2.270000" decel="4.232000" sigma="0.5" minGap="2.404760" maxSpeed="146.331817" guiShape="passenger" />
   <vehicle id="straightW_106" type="vehicleW_106" route="edgeW_edgeE" depart="132" departLane="3" />

   <vType id="vehicleS_107" length="5.441000" accel="3.100000" decel="6.040000" sigma="0.5" minGap="2.404760" maxSpeed="146.331817" guiShape="passenger" />
   <vehicle id="straightS_107" type="vehicleS_107" route="edgeS_edgeN" depart="134" departLane="1" />

   <vType id="vehicleE_108" length="5.084000" accel="2.798000" decel="3.857000" sigma="0.5" minGap="2.404760" maxSpeed="146.331817" guiShape="passenger" />
   <vehicle id="straightE_108" type="vehicleE_108" route="edgeE_edgeW" depart="135" departLane="4" />
