<?xml version="1.0" encoding="UTF-8"?>

<!-- generated on 2021-10-23 04:06:18 by Eclipse SUMO netconvert Version 1.10.0
<configuration xmlns:xsi="http://www.w3.org/2001/XMLSchema-instance" xsi:noNamespaceSchemaLocation="http://sumo.dlr.de/xsd/netconvertConfiguration.xsd">

    <input>
        <node-files value="data3/cross.nod.xml"/>
        <edge-files value="data3/cross.edg.xml"/>
        <connection-files value="data3/cross.con.xml"/>
    </input>

    <output>
        <output-file value="data3/cross.net.xml"/>
    </output>

    <junctions>
        <no-turnarounds.except-turnlane value="true"/>
    </junctions>

    <report>
        <aggregate-warnings value="5"/>
    </report>

</configuration>
-->

<net version="1.9" junctionCornerDetail="5" limitTurnSpeed="5.50" xmlns:xsi="http://www.w3.org/2001/XMLSchema-instance" xsi:noNamespaceSchemaLocation="http://sumo.dlr.de/xsd/net_file.xsd">

    <location netOffset="300.00,800.00" convBoundary="0.00,0.00,600.00,1200.00" origBoundary="-300.00,-800.00,300.00,400.00" projParameter="!"/>

    <edge id=":juncE_0" function="internal">
        <lane id=":juncE_0_0" index="0" disallow="pedestrian" speed="3.65" length="4.67" shape="600.00,798.40 601.20,799.20 601.60,800.00 601.20,800.80 600.00,801.60"/>
    </edge>
    <edge id=":juncE_w0" function="walkingarea">
        <lane id=":juncE_w0_0" index="0" allow="pedestrian" speed="1.00" length="28.80" width="3.20" shape="600.00,812.80 600.00,816.00 600.00,784.00 600.00,787.20"/>
    </edge>
    <edge id=":juncMain_0" function="internal">
        <lane id=":juncMain_0_0" index="0" disallow="pedestrian" speed="22.63" length="35.00" shape="298.40,817.50 298.40,782.50"/>
    </edge>
    <edge id=":juncMain_1" function="internal">
        <lane id=":juncMain_1_0" index="0" disallow="pedestrian" speed="24.01" length="15.80" shape="307.90,811.20 292.10,811.20"/>
        <lane id=":juncMain_1_1" index="1" disallow="pedestrian" speed="24.01" length="15.80" shape="307.90,808.00 292.10,808.00"/>
        <lane id=":juncMain_1_2" index="2" disallow="pedestrian" speed="24.01" length="15.80" shape="307.90,804.80 292.10,804.80"/>
        <lane id=":juncMain_1_3" index="3" disallow="pedestrian" speed="24.01" length="15.80" shape="307.90,801.60 292.10,801.60"/>
    </edge>
    <edge id=":juncMain_5" function="internal">
        <lane id=":juncMain_5_0" index="0" disallow="pedestrian" speed="10.17" length="4.85" shape="307.90,801.60 303.74,800.41 303.41,800.00"/>
    </edge>
    <edge id=":juncMain_6" function="internal">
        <lane id=":juncMain_6_0" index="0" disallow="pedestrian" speed="3.65" length="2.34" shape="307.90,801.60 306.70,800.80 306.30,800.00"/>
    </edge>
    <edge id=":juncMain_14" function="internal">
        <lane id=":juncMain_14_0" index="0" disallow="pedestrian" speed="10.17" length="18.73" shape="303.41,800.00 300.77,796.83 298.99,790.86 298.40,782.50"/>
    </edge>
    <edge id=":juncMain_15" function="internal">
        <lane id=":juncMain_15_0" index="0" disallow="pedestrian" speed="3.65" length="2.34" shape="306.30,800.00 306.70,799.20 307.90,798.40"/>
    </edge>
    <edge id=":juncMain_7" function="internal">
        <lane id=":juncMain_7_0" index="0" disallow="pedestrian" speed="22.63" length="35.00" shape="301.60,782.50 301.60,817.50"/>
    </edge>
    <edge id=":juncMain_8" function="internal">
        <lane id=":juncMain_8_0" index="0" disallow="pedestrian" speed="24.01" length="15.80" shape="292.10,788.80 307.90,788.80"/>
        <lane id=":juncMain_8_1" index="1" disallow="pedestrian" speed="24.01" length="15.80" shape="292.10,792.00 307.90,792.00"/>
        <lane id=":juncMain_8_2" index="2" disallow="pedestrian" speed="24.01" length="15.80" shape="292.10,795.20 307.90,795.20"/>
        <lane id=":juncMain_8_3" index="3" disallow="pedestrian" speed="24.01" length="15.80" shape="292.10,798.40 307.90,798.40"/>
    </edge>
    <edge id=":juncMain_12" function="internal">
        <lane id=":juncMain_12_0" index="0" disallow="pedestrian" speed="10.17" length="4.85" shape="292.10,798.40 296.26,799.59 296.59,800.00"/>
    </edge>
    <edge id=":juncMain_13" function="internal">
        <lane id=":juncMain_13_0" index="0" disallow="pedestrian" speed="3.65" length="2.34" shape="292.10,798.40 293.30,799.20 293.70,800.00"/>
    </edge>
    <edge id=":juncMain_16" function="internal">
        <lane id=":juncMain_16_0" index="0" disallow="pedestrian" speed="10.17" length="18.73" shape="296.59,800.00 299.23,803.17 301.01,809.14 301.60,817.50"/>
    </edge>
    <edge id=":juncMain_17" function="internal">
        <lane id=":juncMain_17_0" index="0" disallow="pedestrian" speed="3.65" length="2.34" shape="293.70,800.00 293.30,800.80 292.10,801.60"/>
    </edge>
    <edge id=":juncMain_c0" function="crossing" crossingEdges="edgeN_I edgeN_O">
        <lane id=":juncMain_c0_0" index="0" allow="pedestrian" speed="1.00" length="6.40" width="4.50" shape="303.20,815.25 296.80,815.25"/>
    </edge>
    <edge id=":juncMain_c1" function="crossing" crossingEdges="edgeE_I edgeE_O">
        <lane id=":juncMain_c1_0" index="0" allow="pedestrian" speed="1.00" length="25.60" width="4.50" shape="305.65,787.20 305.65,812.80"/>
    </edge>
    <edge id=":juncMain_c2" function="crossing" crossingEdges="edgeS_I edgeS_O">
        <lane id=":juncMain_c2_0" index="0" allow="pedestrian" speed="1.00" length="6.40" width="4.50" shape="296.80,784.75 303.20,784.75"/>
    </edge>
    <edge id=":juncMain_c3" function="crossing" crossingEdges="edgeW_I edgeW_O">
        <lane id=":juncMain_c3_0" index="0" allow="pedestrian" speed="1.00" length="25.60" width="4.50" shape="294.35,812.80 294.35,787.20"/>
    </edge>
    <edge id=":juncMain_w0" function="walkingarea">
        <lane id=":juncMain_w0_0" index="0" allow="pedestrian" speed="1.00" length="3.82" width="4.50" shape="292.10,812.80 292.10,816.00 293.60,817.50 296.80,817.50 296.67,816.06 296.28,814.89 295.62,813.98 294.71,813.32 293.54,812.93"/>
    </edge>
    <edge id=":juncMain_w1" function="walkingarea">
        <lane id=":juncMain_w1_0" index="0" allow="pedestrian" speed="1.00" length="3.82" width="4.50" shape="303.20,817.50 306.40,817.50 307.90,816.00 307.90,812.80 306.46,812.93 305.29,813.32 304.38,813.98 303.72,814.89 303.33,816.06"/>
    </edge>
    <edge id=":juncMain_w2" function="walkingarea">
        <lane id=":juncMain_w2_0" index="0" allow="pedestrian" speed="1.00" length="3.82" width="4.50" shape="307.90,787.20 307.90,784.00 306.40,782.50 303.20,782.50 303.33,783.94 303.72,785.11 304.38,786.02 305.29,786.68 306.46,787.07"/>
    </edge>
    <edge id=":juncMain_w3" function="walkingarea">
        <lane id=":juncMain_w3_0" index="0" allow="pedestrian" speed="1.00" length="3.82" width="4.50" shape="296.80,782.50 293.60,782.50 292.10,784.00 292.10,787.20 293.54,787.07 294.71,786.68 295.62,786.02 296.28,785.11 296.67,783.94"/>
    </edge>
    <edge id=":juncN_0" function="internal">
        <lane id=":juncN_0_0" index="0" disallow="pedestrian" speed="3.65" length="4.67" shape="301.60,1200.00 300.80,1201.20 300.00,1201.60 299.20,1201.20 298.40,1200.00"/>
    </edge>
    <edge id=":juncN_w0" function="walkingarea">
        <lane id=":juncN_w0_0" index="0" allow="pedestrian" speed="1.00" length="9.60" width="3.20" shape="296.80,1200.00 293.60,1200.00 306.40,1200.00 303.20,1200.00"/>
    </edge>
    <edge id=":juncS_0" function="internal">
        <lane id=":juncS_0_0" index="0" disallow="pedestrian" speed="3.65" length="4.67" shape="298.40,0.00 299.20,-1.20 300.00,-1.60 300.80,-1.20 301.60,0.00"/>
    </edge>
    <edge id=":juncS_w0" function="walkingarea">
        <lane id=":juncS_w0_0" index="0" allow="pedestrian" speed="1.00" length="9.60" width="3.20" shape="303.20,0.00 306.40,0.00 293.60,0.00 296.80,0.00"/>
    </edge>
    <edge id=":juncW_0" function="internal">
        <lane id=":juncW_0_0" index="0" disallow="pedestrian" speed="3.65" length="4.67" shape="0.00,801.60 -1.20,800.80 -1.60,800.00 -1.20,799.20 0.00,798.40"/>
    </edge>
    <edge id=":juncW_w0" function="walkingarea">
        <lane id=":juncW_w0_0" index="0" allow="pedestrian" speed="1.00" length="28.80" width="3.20" shape="0.00,787.20 0.00,784.00 0.00,816.00 0.00,812.80"/>
    </edge>

    <edge id="edgeE_I" from="juncMain" to="juncE" priority="46">
        <lane id="edgeE_I_0" index="0" allow="pedestrian" speed="22.41" length="292.10" shape="307.90,785.60 600.00,785.60"/>
        <lane id="edgeE_I_1" index="1" disallow="pedestrian" speed="22.41" length="292.10" shape="307.90,788.80 600.00,788.80"/>
        <lane id="edgeE_I_2" index="2" disallow="pedestrian" speed="22.41" length="292.10" shape="307.90,792.00 600.00,792.00"/>
        <lane id="edgeE_I_3" index="3" disallow="pedestrian" speed="22.41" length="292.10" shape="307.90,795.20 600.00,795.20"/>
        <lane id="edgeE_I_4" index="4" disallow="pedestrian" speed="22.41" length="292.10" shape="307.90,798.40 600.00,798.40"/>
    </edge>
    <edge id="edgeE_O" from="juncE" to="juncMain" priority="78">
        <lane id="edgeE_O_0" index="0" allow="pedestrian" speed="25.61" length="292.10" shape="600.00,814.40 307.90,814.40"/>
        <lane id="edgeE_O_1" index="1" disallow="pedestrian" speed="25.61" length="292.10" shape="600.00,811.20 307.90,811.20"/>
        <lane id="edgeE_O_2" index="2" disallow="pedestrian" speed="25.61" length="292.10" shape="600.00,808.00 307.90,808.00"/>
        <lane id="edgeE_O_3" index="3" disallow="pedestrian" speed="25.61" length="292.10" shape="600.00,804.80 307.90,804.80"/>
        <lane id="edgeE_O_4" index="4" disallow="pedestrian" speed="25.61" length="292.10" shape="600.00,801.60 307.90,801.60"/>
    </edge>
    <edge id="edgeN_I" from="juncMain" to="juncN" priority="46">
        <lane id="edgeN_I_0" index="0" allow="pedestrian" speed="24.30" length="382.50" shape="304.80,817.50 304.80,1200.00"/>
        <lane id="edgeN_I_1" index="1" disallow="pedestrian" speed="24.30" length="382.50" shape="301.60,817.50 301.60,1200.00"/>
    </edge>
    <edge id="edgeN_O" from="juncN" to="juncMain" priority="78">
        <lane id="edgeN_O_0" index="0" allow="pedestrian" speed="20.97" length="382.50" shape="295.20,1200.00 295.20,817.50"/>
        <lane id="edgeN_O_1" index="1" disallow="pedestrian" speed="20.97" length="382.50" shape="298.40,1200.00 298.40,817.50"/>
    </edge>
    <edge id="edgeS_I" from="juncMain" to="juncS" priority="46">
        <lane id="edgeS_I_0" index="0" allow="pedestrian" speed="24.30" length="782.50" shape="295.20,782.50 295.20,0.00"/>
        <lane id="edgeS_I_1" index="1" disallow="pedestrian" speed="24.30" length="782.50" shape="298.40,782.50 298.40,0.00"/>
    </edge>
    <edge id="edgeS_O" from="juncS" to="juncMain" priority="78">
        <lane id="edgeS_O_0" index="0" allow="pedestrian" speed="20.97" length="782.50" shape="304.80,0.00 304.80,782.50"/>
        <lane id="edgeS_O_1" index="1" disallow="pedestrian" speed="20.97" length="782.50" shape="301.60,0.00 301.60,782.50"/>
    </edge>
    <edge id="edgeW_I" from="juncMain" to="juncW" priority="46">
        <lane id="edgeW_I_0" index="0" allow="pedestrian" speed="22.41" length="292.10" shape="292.10,814.40 0.00,814.40"/>
        <lane id="edgeW_I_1" index="1" disallow="pedestrian" speed="22.41" length="292.10" shape="292.10,811.20 0.00,811.20"/>
        <lane id="edgeW_I_2" index="2" disallow="pedestrian" speed="22.41" length="292.10" shape="292.10,808.00 0.00,808.00"/>
        <lane id="edgeW_I_3" index="3" disallow="pedestrian" speed="22.41" length="292.10" shape="292.10,804.80 0.00,804.80"/>
        <lane id="edgeW_I_4" index="4" disallow="pedestrian" speed="22.41" length="292.10" shape="292.10,801.60 0.00,801.60"/>
    </edge>
    <edge id="edgeW_O" from="juncW" to="juncMain" priority="78">
        <lane id="edgeW_O_0" index="0" allow="pedestrian" speed="25.61" length="292.10" shape="0.00,785.60 292.10,785.60"/>
        <lane id="edgeW_O_1" index="1" disallow="pedestrian" speed="25.61" length="292.10" shape="0.00,788.80 292.10,788.80"/>
        <lane id="edgeW_O_2" index="2" disallow="pedestrian" speed="25.61" length="292.10" shape="0.00,792.00 292.10,792.00"/>
        <lane id="edgeW_O_3" index="3" disallow="pedestrian" speed="25.61" length="292.10" shape="0.00,795.20 292.10,795.20"/>
        <lane id="edgeW_O_4" index="4" disallow="pedestrian" speed="25.61" length="292.10" shape="0.00,798.40 292.10,798.40"/>
    </edge>

    <tlLogic id="juncMain" type="static" programID="0" offset="0">
        <phase duration="34" state="rGGGGggrGGGGggGrGr"/>
        <phase duration="5"  state="rGGGGggrGGGGggrrrr"/>
        <phase duration="6"  state="ryyyyyyryyyyyyrrrr"/>
        <phase duration="34" state="GrrrrrrGrrrrrrrGrG"/>
        <phase duration="5"  state="GrrrrrrGrrrrrrrrrr"/>
        <phase duration="6"  state="yrrrrrryrrrrrrrrrr"/>
    </tlLogic>

    <junction id="juncE" type="priority" x="600.00" y="800.00" incLanes="edgeE_I_0 edgeE_I_1 edgeE_I_2 edgeE_I_3 edgeE_I_4" intLanes=":juncE_0_0" shape="600.00,800.00 600.00,784.00 600.00,800.00">
        <request index="0" response="0" foes="0" cont="0"/>
    </junction>
    <junction id="juncMain" type="traffic_light" x="300.00" y="800.00" incLanes="edgeN_O_0 edgeN_O_1 edgeE_O_0 edgeE_O_1 edgeE_O_2 edgeE_O_3 edgeE_O_4 edgeS_O_0 edgeS_O_1 edgeW_O_0 edgeW_O_1 edgeW_O_2 edgeW_O_3 edgeW_O_4 :juncMain_w1_0 :juncMain_w2_0 :juncMain_w3_0 :juncMain_w0_0" intLanes=":juncMain_0_0 :juncMain_1_0 :juncMain_1_1 :juncMain_1_2 :juncMain_1_3 :juncMain_14_0 :juncMain_15_0 :juncMain_7_0 :juncMain_8_0 :juncMain_8_1 :juncMain_8_2 :juncMain_8_3 :juncMain_16_0 :juncMain_17_0 :juncMain_c0_0 :juncMain_c1_0 :juncMain_c2_0 :juncMain_c3_0" shape="293.60,817.50 306.40,817.50 306.57,816.67 306.78,816.38 307.07,816.17 307.44,816.04 307.90,816.00 307.90,784.00 307.07,783.83 306.78,783.62 306.57,783.33 306.44,782.96 306.40,782.50 293.60,782.50 293.43,783.33 293.22,783.62 292.93,783.83 292.56,783.96 292.10,784.00 292.10,816.00 292.93,816.17 293.22,816.38 293.43,816.67 293.56,817.04">
        <request index="0"  response="010101111100111110" foes="010101111100111110" cont="0"/>
        <request index="1"  response="101000000000000000" foes="101011000010000001" cont="0"/>
        <request index="2"  response="101000000000000000" foes="101011000010000001" cont="0"/>
        <request index="3"  response="101000000000000000" foes="101011000010000001" cont="0"/>
        <request index="4"  response="101000000000000000" foes="101011000010000001" cont="0"/>
        <request index="5"  response="011000111100000000" foes="011000111110000001" cont="1"/>
        <request index="6"  response="001000111100000000" foes="001000111100000000" cont="1"/>
        <request index="7"  response="010101111100111110" foes="010101111100111110" cont="0"/>
        <request index="8"  response="101000000000000000" foes="101000000011100001" cont="0"/>
        <request index="9"  response="101000000000000000" foes="101000000011100001" cont="0"/>
        <request index="10" response="101000000000000000" foes="101000000011100001" cont="0"/>
        <request index="11" response="101000000000000000" foes="101000000011100001" cont="0"/>
        <request index="12" response="100100000000011110" foes="100100000010011111" cont="1"/>
        <request index="13" response="100000000000011110" foes="100000000000011110" cont="1"/>
        <request index="14" response="000000000000000000" foes="000001000010000001" cont="0"/>
        <request index="15" response="000000000000000000" foes="000000111101111110" cont="0"/>
        <request index="16" response="000000000000000000" foes="000000000010100001" cont="0"/>
        <request index="17" response="000000000000000000" foes="000011111100011110" cont="0"/>
    </junction>
    <junction id="juncN" type="priority" x="300.00" y="1200.00" incLanes="edgeN_I_0 edgeN_I_1" intLanes=":juncN_0_0" shape="300.00,1200.00 306.40,1200.00 300.00,1200.00">
        <request index="0" response="0" foes="0" cont="0"/>
    </junction>
    <junction id="juncS" type="priority" x="300.00" y="0.00" incLanes="edgeS_I_0 edgeS_I_1" intLanes=":juncS_0_0" shape="300.00,0.00 293.60,0.00 300.00,0.00">
        <request index="0" response="0" foes="0" cont="0"/>
    </junction>
    <junction id="juncW" type="priority" x="0.00" y="800.00" incLanes="edgeW_I_0 edgeW_I_1 edgeW_I_2 edgeW_I_3 edgeW_I_4" intLanes=":juncW_0_0" shape="0.00,800.00 0.00,816.00 0.00,800.00">
        <request index="0" response="0" foes="0" cont="0"/>
    </junction>

    <junction id=":juncMain_14_0" type="internal" x="303.41" y="800.00" incLanes=":juncMain_5_0 edgeW_O_1 edgeW_O_2 edgeW_O_3 edgeW_O_4" intLanes=":juncMain_0_0 :juncMain_7_0 :juncMain_8_0 :juncMain_8_1 :juncMain_8_2 :juncMain_8_3 :juncMain_c1_0 :juncMain_c2_0"/>
    <junction id=":juncMain_15_0" type="internal" x="306.30" y="800.00" incLanes=":juncMain_6_0 edgeW_O_1 edgeW_O_2 edgeW_O_3 edgeW_O_4" intLanes=":juncMain_8_0 :juncMain_8_1 :juncMain_8_2 :juncMain_8_3 :juncMain_c1_0 :juncMain_c1_0"/>
    <junction id=":juncMain_16_0" type="internal" x="296.59" y="800.00" incLanes=":juncMain_12_0 edgeE_O_1 edgeE_O_2 edgeE_O_3 edgeE_O_4" intLanes=":juncMain_0_0 :juncMain_1_0 :juncMain_1_1 :juncMain_1_2 :juncMain_1_3 :juncMain_7_0 :juncMain_c0_0 :juncMain_c3_0"/>
    <junction id=":juncMain_17_0" type="internal" x="293.70" y="800.00" incLanes=":juncMain_13_0 edgeE_O_1 edgeE_O_2 edgeE_O_3 edgeE_O_4" intLanes=":juncMain_1_0 :juncMain_1_1 :juncMain_1_2 :juncMain_1_3 :juncMain_c3_0 :juncMain_c3_0"/>

    <connection from="edgeE_I" to="edgeE_O" fromLane="4" toLane="4" via=":juncE_0_0" dir="t" state="M"/>
    <connection from="edgeE_O" to="edgeW_I" fromLane="1" toLane="1" via=":juncMain_1_0" tl="juncMain" linkIndex="1" dir="s" state="o"/>
    <connection from="edgeE_O" to="edgeW_I" fromLane="2" toLane="2" via=":juncMain_1_1" tl="juncMain" linkIndex="2" dir="s" state="o"/>
    <connection from="edgeE_O" to="edgeW_I" fromLane="3" toLane="3" via=":juncMain_1_2" tl="juncMain" linkIndex="3" dir="s" state="o"/>
    <connection from="edgeE_O" to="edgeW_I" fromLane="4" toLane="4" via=":juncMain_1_3" tl="juncMain" linkIndex="4" dir="s" state="o"/>
    <connection from="edgeE_O" to="edgeS_I" fromLane="4" toLane="1" via=":juncMain_5_0" tl="juncMain" linkIndex="5" dir="l" state="o"/>
    <connection from="edgeE_O" to="edgeE_I" fromLane="4" toLane="4" via=":juncMain_6_0" tl="juncMain" linkIndex="6" dir="t" state="o"/>
    <connection from="edgeN_I" to="edgeN_O" fromLane="1" toLane="1" via=":juncN_0_0" dir="t" state="M"/>
    <connection from="edgeN_O" to="edgeS_I" fromLane="1" toLane="1" via=":juncMain_0_0" tl="juncMain" linkIndex="0" dir="s" state="o"/>
    <connection from="edgeS_I" to="edgeS_O" fromLane="1" toLane="1" via=":juncS_0_0" dir="t" state="M"/>
    <connection from="edgeS_O" to="edgeN_I" fromLane="1" toLane="1" via=":juncMain_7_0" tl="juncMain" linkIndex="7" dir="s" state="o"/>
    <connection from="edgeW_I" to="edgeW_O" fromLane="4" toLane="4" via=":juncW_0_0" dir="t" state="M"/>
    <connection from="edgeW_O" to="edgeE_I" fromLane="1" toLane="1" via=":juncMain_8_0" tl="juncMain" linkIndex="8" dir="s" state="o"/>
    <connection from="edgeW_O" to="edgeE_I" fromLane="2" toLane="2" via=":juncMain_8_1" tl="juncMain" linkIndex="9" dir="s" state="o"/>
    <connection from="edgeW_O" to="edgeE_I" fromLane="3" toLane="3" via=":juncMain_8_2" tl="juncMain" linkIndex="10" dir="s" state="o"/>
    <connection from="edgeW_O" to="edgeE_I" fromLane="4" toLane="4" via=":juncMain_8_3" tl="juncMain" linkIndex="11" dir="s" state="o"/>
    <connection from="edgeW_O" to="edgeN_I" fromLane="4" toLane="1" via=":juncMain_12_0" tl="juncMain" linkIndex="12" dir="l" state="o"/>
    <connection from="edgeW_O" to="edgeW_I" fromLane="4" toLane="4" via=":juncMain_13_0" tl="juncMain" linkIndex="13" dir="t" state="o"/>

    <connection from=":juncE_0" to="edgeE_O" fromLane="0" toLane="4" dir="t" state="M"/>
    <connection from=":juncMain_0" to="edgeS_I" fromLane="0" toLane="1" dir="s" state="M"/>
    <connection from=":juncMain_1" to="edgeW_I" fromLane="0" toLane="1" dir="s" state="M"/>
    <connection from=":juncMain_1" to="edgeW_I" fromLane="1" toLane="2" dir="s" state="M"/>
    <connection from=":juncMain_1" to="edgeW_I" fromLane="2" toLane="3" dir="s" state="M"/>
    <connection from=":juncMain_1" to="edgeW_I" fromLane="3" toLane="4" dir="s" state="M"/>
    <connection from=":juncMain_5" to="edgeS_I" fromLane="0" toLane="1" via=":juncMain_14_0" dir="l" state="m"/>
    <connection from=":juncMain_14" to="edgeS_I" fromLane="0" toLane="1" dir="l" state="M"/>
    <connection from=":juncMain_6" to="edgeE_I" fromLane="0" toLane="4" via=":juncMain_15_0" dir="t" state="m"/>
    <connection from=":juncMain_15" to="edgeE_I" fromLane="0" toLane="4" dir="t" state="M"/>
    <connection from=":juncMain_7" to="edgeN_I" fromLane="0" toLane="1" dir="s" state="M"/>
    <connection from=":juncMain_8" to="edgeE_I" fromLane="0" toLane="1" dir="s" state="M"/>
    <connection from=":juncMain_8" to="edgeE_I" fromLane="1" toLane="2" dir="s" state="M"/>
    <connection from=":juncMain_8" to="edgeE_I" fromLane="2" toLane="3" dir="s" state="M"/>
    <connection from=":juncMain_8" to="edgeE_I" fromLane="3" toLane="4" dir="s" state="M"/>
    <connection from=":juncMain_12" to="edgeN_I" fromLane="0" toLane="1" via=":juncMain_16_0" dir="l" state="m"/>
    <connection from=":juncMain_16" to="edgeN_I" fromLane="0" toLane="1" dir="l" state="M"/>
    <connection from=":juncMain_13" to="edgeW_I" fromLane="0" toLane="4" via=":juncMain_17_0" dir="t" state="m"/>
    <connection from=":juncMain_17" to="edgeW_I" fromLane="0" toLane="4" dir="t" state="M"/>
    <connection from=":juncN_0" to="edgeN_O" fromLane="0" toLane="1" dir="t" state="M"/>
    <connection from=":juncS_0" to="edgeS_O" fromLane="0" toLane="1" dir="t" state="M"/>
    <connection from=":juncW_0" to="edgeW_O" fromLane="0" toLane="4" dir="t" state="M"/>

    <connection from=":juncE_w0" to="edgeE_O" fromLane="0" toLane="0" dir="s" state="M"/>
    <connection from="edgeE_I" to=":juncE_w0" fromLane="0" toLane="0" dir="s" state="M"/>
    <connection from=":juncMain_c0" to=":juncMain_w0" fromLane="0" toLane="0" dir="s" state="M"/>
    <connection from=":juncMain_c1" to=":juncMain_w1" fromLane="0" toLane="0" dir="s" state="M"/>
    <connection from=":juncMain_c2" to=":juncMain_w2" fromLane="0" toLane="0" dir="s" state="M"/>
    <connection from=":juncMain_c3" to=":juncMain_w3" fromLane="0" toLane="0" dir="s" state="M"/>
    <connection from=":juncMain_w0" to=":juncMain_c3" fromLane="0" toLane="0" tl="juncMain" linkIndex="17" dir="s" state="M"/>
    <connection from=":juncMain_w0" to="edgeW_I" fromLane="0" toLane="0" dir="s" state="M"/>
    <connection from="edgeN_O" to=":juncMain_w0" fromLane="0" toLane="0" dir="s" state="M"/>
    <connection from=":juncMain_w1" to=":juncMain_c0" fromLane="0" toLane="0" tl="juncMain" linkIndex="14" dir="s" state="M"/>
    <connection from=":juncMain_w1" to="edgeN_I" fromLane="0" toLane="0" dir="s" state="M"/>
    <connection from="edgeE_O" to=":juncMain_w1" fromLane="0" toLane="0" dir="s" state="M"/>
    <connection from=":juncMain_w2" to=":juncMain_c1" fromLane="0" toLane="0" tl="juncMain" linkIndex="15" dir="s" state="M"/>
    <connection from=":juncMain_w2" to="edgeE_I" fromLane="0" toLane="0" dir="s" state="M"/>
    <connection from="edgeS_O" to=":juncMain_w2" fromLane="0" toLane="0" dir="s" state="M"/>
    <connection from=":juncMain_w3" to=":juncMain_c2" fromLane="0" toLane="0" tl="juncMain" linkIndex="16" dir="s" state="M"/>
    <connection from=":juncMain_w3" to="edgeS_I" fromLane="0" toLane="0" dir="s" state="M"/>
    <connection from="edgeW_O" to=":juncMain_w3" fromLane="0" toLane="0" dir="s" state="M"/>
    <connection from=":juncN_w0" to="edgeN_O" fromLane="0" toLane="0" dir="s" state="M"/>
    <connection from="edgeN_I" to=":juncN_w0" fromLane="0" toLane="0" dir="s" state="M"/>
    <connection from=":juncS_w0" to="edgeS_O" fromLane="0" toLane="0" dir="s" state="M"/>
    <connection from="edgeS_I" to=":juncS_w0" fromLane="0" toLane="0" dir="s" state="M"/>
    <connection from=":juncW_w0" to="edgeW_O" fromLane="0" toLane="0" dir="s" state="M"/>
    <connection from="edgeW_I" to=":juncW_w0" fromLane="0" toLane="0" dir="s" state="M"/>
</net>
