<connections>
   <crossing width="4.50" edges="edgeN_I edgeN_O" node="juncMain" priority="1"/>
    <crossing width="4.50" edges="edgeE_I edgeE_O" node="juncMain" priority="1"/>
    <crossing width="4.50" edges="edgeS_I edgeS_O" node="juncMain" priority="1"/>
    <crossing width="4.50" edges="edgeW_I edgeW_O" node="juncMain" priority="1"/>
   <!-- North -->
   <connection from="edgeN_O" to="edgeW_I" fromLane="1" toLane="1"/>
   <connection from="edgeN_O" to="edgeS_I" fromLane="1" toLane="1"/>

   <connection from="edgeN_O" to="edgeS_I" fromLane="2" toLane="2"/>
   <connection from="edgeN_O" to="edgeS_I" fromLane="3" toLane="3"/>
   <connection from="edgeN_O" to="edgeS_I" fromLane="4" toLane="4"/>

   <connection from="edgeN_O" to="edgeE_I" fromLane="5" toLane="4"/>

   <connection from="edgeN_O" to="edgeN_I" fromLane="5" toLane="5"/>

   <!-- South -->
   <connection from="edgeS_O" to="edgeE_I" fromLane="1" toLane="1"/>
   <connection from="edgeS_O" to="edgeN_I" fromLane="1" toLane="1"/>

   <connection from="edgeS_O" to="edgeN_I" fromLane="2" toLane="2"/>
   <connection from="edgeS_O" to="edgeN_I" fromLane="3" toLane="3"/>
   <connection from="edgeS_O" to="edgeN_I" fromLane="4" toLane="4"/>

   <connection from="edgeS_O" to="edgeW_I" fromLane="5" toLane="4"/>

   <connection from="edgeS_O" to="edgeS_I" fromLane="5" toLane="5"/>

   <!-- West -->
   <connection from="edgeW_O" to="edgeS_I" fromLane="1" toLane="1"/>
   <connection from="edgeW_O" to="edgeS_I" fromLane="1" toLane="2"/>

   <connection from="edgeW_O" to="edgeS_I" fromLane="2" toLane="1"/>
   <connection from="edgeW_O" to="edgeS_I" fromLane="2" toLane="2"/>
   <connection from="edgeW_O" to="edgeE_I" fromLane="2" toLane="2"/>

   <connection from="edgeW_O" to="edgeE_I" fromLane="3" toLane="3"/>

   <connection from="edgeW_O" to="edgeN_I" fromLane="4" toLane="5"/>
   <connection from="edgeW_O" to="edgeN_I" fromLane="4" toLane="4"/>
   <connection from="edgeW_O" to="edgeE_I" fromLane="4" toLane="4"/>

   <connection from="edgeW_O" to="edgeW_I" fromLane="4" toLane="4"/>

   <!-- East -->
   <connection from="edgeE_O" to="edgeN_I" fromLane="1" toLane="1"/>
   <connection from="edgeE_O" to="edgeN_I" fromLane="1" toLane="2"/>

   <connection from="edgeE_O" to="edgeN_I" fromLane="2" toLane="1"/>
   <connection from="edgeE_O" to="edgeN_I" fromLane="2" toLane="2"/>
   <connection from="edgeE_O" to="edgeW_I" fromLane="2" toLane="2"/>

   <connection from="edgeE_O" to="edgeW_I" fromLane="3" toLane="3"/>

   <connection from="edgeE_O" to="edgeS_I" fromLane="4" toLane="5"/>
   <connection from="edgeE_O" to="edgeS_I" fromLane="4" toLane="4"/>
   <connection from="edgeE_O" to="edgeW_I" fromLane="4" toLane="4"/>

   <connection from="edgeE_O" to="edgeE_I" fromLane="4" toLane="4"/>
</connections>
