<additional>
   <tlLogic id="juncMain" type="static" programID="1" offset="0">
       <phase duration="93.404753" state="GGgggrGGgggrrGrG"/>
       <phase duration="3.068514" state="yyyyyryyyyyrrGrG"/>
       <phase duration="12.547703" state="rrrrrrrrrrrrrGrG"/>
       <phase duration="17.991646" state="rrrrrGrrrrrGGrGr"/>
       <phase duration="4.129548" state="rrrrryrrrrryGrGr"/>
       <phase duration="3.170469" state="rrrrrrrrrrrrGrGr"/>
       <phase duration="10.520919" state="rrrGGrrrrGGrrrrr"/>
   </tlLogic>
</additional>
