<routes>
   <personFlow id="pRegN" begin="0" end="3000" personsPerHour="623.236504">
        <walk edges="edgeN_O edgeS_I" speed="0.963618"/>
    </personFlow>
   <personFlow id="pRegS" begin="0" end="3000" personsPerHour="291.449506">
        <walk edges="edgeS_O edgeN_I" speed="1.677229"/>
    </personFlow>
   <personFlow id="pRegW" begin="0" end="3000" personsPerHour="1068.250541">
        <walk edges="edgeW_O edgeE_I" speed="0.962468"/>
    </personFlow>
   <personFlow id="pRegE" begin="0" end="3000" personsPerHour="725.982250">
        <walk edges="edgeE_O edgeW_I" speed="1.655161"/>
    </personFlow>
   <personFlow id="pOppN" begin="0" end="3000" personsPerHour="509.105217" departPos="1000.000000">
        <walk edges="edgeN_I edgeS_O" speed="2.003821"/>
    </personFlow>
   <personFlow id="pOppS" begin="0" end="3000" personsPerHour="953.415283" departPos="700.000000">
        <walk edges="edgeS_I edgeN_O" speed="2.129606"/>
    </personFlow>
   <personFlow id="pOppW" begin="0" end="3000" personsPerHour="966.702673" departPos="400.000000">
        <walk edges="edgeW_I edgeE_O" speed="1.355583"/>
    </personFlow>
   <personFlow id="pOppE" begin="0" end="3000" personsPerHour="509.570603" departPos="800.000000">
        <walk edges="edgeE_I edgeW_O" speed="1.790040"/>
    </personFlow>

    <route id="edgeN_edgeN" edges="edgeN_O edgeN_I" />
    <route id="edgeN_edgeS" edges="edgeN_O edgeS_I" />
    <route id="edgeN_edgeW" edges="edgeN_O edgeW_I" />
    <route id="edgeN_edgeE" edges="edgeN_O edgeE_I" />
    <route id="edgeS_edgeN" edges="edgeS_O edgeN_I" />
    <route id="edgeS_edgeS" edges="edgeS_O edgeS_I" />
    <route id="edgeS_edgeW" edges="edgeS_O edgeW_I" />
    <route id="edgeS_edgeE" edges="edgeS_O edgeE_I" />
    <route id="edgeW_edgeN" edges="edgeW_O edgeN_I" />
    <route id="edgeW_edgeS" edges="edgeW_O edgeS_I" />
    <route id="edgeW_edgeW" edges="edgeW_O edgeW_I" />
    <route id="edgeW_edgeE" edges="edgeW_O edgeE_I" />
    <route id="edgeE_edgeN" edges="edgeE_O edgeN_I" />
    <route id="edgeE_edgeS" edges="edgeE_O edgeS_I" />
    <route id="edgeE_edgeW" edges="edgeE_O edgeW_I" />
    <route id="edgeE_edgeE" edges="edgeE_O edgeE_I" />
    
   <vType id="vehicleS_0" length="4.287000" accel="3.447000" decel="5.137000" sigma="0.5" minGap="2.606604" maxSpeed="138.600119" guiShape="passenger" />
   <vehicle id="straightS_0" type="vehicleS_0" route="edgeS_edgeN" depart="0" departLane="1" />

   <vType id="vehicleE_1" length="4.303000" accel="3.225000" decel="4.714000" sigma="0.5" minGap="2.606604" maxSpeed="138.600119" guiShape="passenger" />
   <vehicle id="straightE_1" type="vehicleE_1" route="edgeE_edgeW" depart="0" departLane="1" />

   <vType id="vehicleN_2" length="5.282000" accel="2.238000" decel="5.609000" sigma="0.5" minGap="2.606604" maxSpeed="138.600119" guiShape="passenger" />
   <vehicle id="straightN_2" type="vehicleN_2" route="edgeN_edgeS" depart="1" departLane="2" />

   <vType id="vehicleW_3" length="4.479000" accel="2.381000" decel="3.015000" sigma="0.5" minGap="2.606604" maxSpeed="138.600119" guiShape="passenger" />
   <vehicle id="straightW_3" type="vehicleW_3" route="edgeW_edgeE" depart="1" departLane="1" />

   <vType id="vehicleE_4" length="4.399000" accel="2.359000" decel="3.512000" sigma="0.5" minGap="2.606604" maxSpeed="138.600119" guiShape="passenger" />
   <vehicle id="straightE_4" type="vehicleE_4" route="edgeE_edgeW" depart="4" departLane="1" />

   <vType id="vehicleE_5" length="5.046000" accel="3.390000" decel="5.162000" sigma="0.5" minGap="2.606604" maxSpeed="138.600119" guiShape="passenger" />
   <vehicle id="straightE_5" type="vehicleE_5" route="edgeE_edgeW" depart="5" departLane="1" />

   <vType id="vehicleS_6" length="4.185000" accel="2.856000" decel="6.281000" sigma="0.5" minGap="2.606604" maxSpeed="138.600119" guiShape="passenger" />
   <vehicle id="straightS_6" type="vehicleS_6" route="edgeS_edgeN" depart="6" departLane="1" />

   <vType id="vehicleW_7" length="4.362000" accel="2.577000" decel="6.110000" sigma="0.5" minGap="2.606604" maxSpeed="138.600119" guiShape="passenger" />
   <vehicle id="straightW_7" type="vehicleW_7" route="edgeW_edgeE" depart="7" departLane="1" />

   <vType id="vehicleE_8" length="5.173000" accel="3.120000" decel="5.394000" sigma="0.5" minGap="2.606604" maxSpeed="138.600119" guiShape="passenger" />
   <vehicle id="straightE_8" type="vehicleE_8" route="edgeE_edgeW" depart="8" departLane="1" />

   <vType id="vehicleW_9" length="4.773000" accel="2.378000" decel="2.833000" sigma="0.5" minGap="2.606604" maxSpeed="138.600119" guiShape="passenger" />
   <vehicle id="straightW_9" type="vehicleW_9" route="edgeW_edgeE" depart="9" departLane="1" />

   <vType id="vehicleE_10" length="5.063000" accel="3.215000" decel="4.068000" sigma="0.5" minGap="2.606604" maxSpeed="138.600119" guiShape="passenger" />
   <vehicle id="straightE_10" type="vehicleE_10" route="edgeE_edgeW" depart="9" departLane="1" />

   <vType id="vehicleE_11" length="5.065000" accel="3.117000" decel="3.637000" sigma="0.5" minGap="2.606604" maxSpeed="138.600119" guiShape="passenger" />
   <vehicle id="straightE_11" type="vehicleE_11" route="edgeE_edgeW" depart="10" departLane="1" />

   <vType id="vehicleN_12" length="4.678000" accel="3.808000" decel="5.865000" sigma="0.5" minGap="2.606604" maxSpeed="138.600119" guiShape="passenger" />
   <vehicle id="straightN_12" type="vehicleN_12" route="edgeN_edgeS" depart="11" departLane="2" />

   <vType id="vehicleN_13" length="5.337000" accel="3.068000" decel="3.389000" sigma="0.5" minGap="2.606604" maxSpeed="138.600119" guiShape="passenger" />
   <vehicle id="straightN_13" type="vehicleN_13" route="edgeN_edgeS" depart="12" departLane="2" />

   <vType id="vehicleS_14" length="3.940000" accel="3.767000" decel="5.876000" sigma="0.5" minGap="2.606604" maxSpeed="138.600119" guiShape="passenger" />
   <vehicle id="straightS_14" type="vehicleS_14" route="edgeS_edgeN" depart="13" departLane="2" />

   <vType id="vehicleW_15" length="4.871000" accel="2.357000" decel="5.338000" sigma="0.5" minGap="2.606604" maxSpeed="138.600119" guiShape="passenger" />
   <vehicle id="straightW_15" type="vehicleW_15" route="edgeW_edgeE" depart="13" departLane="1" />

   <vType id="vehicleS_16" length="5.516000" accel="2.501000" decel="4.591000" sigma="0.5" minGap="2.606604" maxSpeed="138.600119" guiShape="passenger" />
   <vehicle id="straightS_16" type="vehicleS_16" route="edgeS_edgeN" depart="14" departLane="2" />

   <vType id="vehicleN_17" length="3.943000" accel="3.145000" decel="4.814000" sigma="0.5" minGap="2.606604" maxSpeed="138.600119" guiShape="passenger" />
   <vehicle id="leftN_17" type="vehicleN_17" route="edgeN_edgeE" depart="17" departLane="2" />

   <vType id="vehicleS_18" length="4.296000" accel="3.727000" decel="5.806000" sigma="0.5" minGap="2.606604" maxSpeed="138.600119" guiShape="passenger" />
   <vehicle id="straightS_18" type="vehicleS_18" route="edgeS_edgeN" depart="17" departLane="1" />

   <vType id="vehicleN_19" length="4.509000" accel="2.908000" decel="5.821000" sigma="0.5" minGap="2.606604" maxSpeed="138.600119" guiShape="passenger" />
   <vehicle id="straightN_19" type="vehicleN_19" route="edgeN_edgeS" depart="20" departLane="1" />

   <vType id="vehicleE_20" length="4.484000" accel="3.655000" decel="3.571000" sigma="0.5" minGap="2.606604" maxSpeed="138.600119" guiShape="passenger" />
   <vehicle id="straightE_20" type="vehicleE_20" route="edgeE_edgeW" depart="20" departLane="1" />

   <vType id="vehicleS_21" length="4.693000" accel="3.676000" decel="2.937000" sigma="0.5" minGap="2.606604" maxSpeed="138.600119" guiShape="passenger" />
   <vehicle id="straightS_21" type="vehicleS_21" route="edgeS_edgeN" depart="21" departLane="1" />

   <vType id="vehicleW_22" length="5.328000" accel="3.833000" decel="6.050000" sigma="0.5" minGap="2.606604" maxSpeed="138.600119" guiShape="passenger" />
   <vehicle id="straightW_22" type="vehicleW_22" route="edgeW_edgeE" depart="21" departLane="1" />

   <vType id="vehicleE_23" length="4.271000" accel="2.892000" decel="2.875000" sigma="0.5" minGap="2.606604" maxSpeed="138.600119" guiShape="passenger" />
   <vehicle id="straightE_23" type="vehicleE_23" route="edgeE_edgeW" depart="21" departLane="1" />

   <vType id="vehicleN_24" length="5.481000" accel="3.528000" decel="3.704000" sigma="0.5" minGap="2.606604" maxSpeed="138.600119" guiShape="passenger" />
   <vehicle id="straightN_24" type="vehicleN_24" route="edgeN_edgeS" depart="22" departLane="2" />

   <vType id="vehicleS_25" length="5.553000" accel="3.187000" decel="4.644000" sigma="0.5" minGap="2.606604" maxSpeed="138.600119" guiShape="passenger" />
   <vehicle id="straightS_25" type="vehicleS_25" route="edgeS_edgeN" depart="22" departLane="2" />

   <vType id="vehicleW_26" length="4.762000" accel="3.640000" decel="3.237000" sigma="0.5" minGap="2.606604" maxSpeed="138.600119" guiShape="passenger" />
   <vehicle id="straightW_26" type="vehicleW_26" route="edgeW_edgeE" depart="22" departLane="1" />

   <vType id="vehicleN_27" length="5.371000" accel="2.896000" decel="6.106000" sigma="0.5" minGap="2.606604" maxSpeed="138.600119" guiShape="passenger" />
   <vehicle id="leftN_27" type="vehicleN_27" route="edgeN_edgeE" depart="23" departLane="2" />

   <vType id="vehicleW_28" length="5.024000" accel="3.164000" decel="3.818000" sigma="0.5" minGap="2.606604" maxSpeed="138.600119" guiShape="passenger" />
   <vehicle id="straightW_28" type="vehicleW_28" route="edgeW_edgeE" depart="23" departLane="1" />

   <vType id="vehicleN_29" length="5.185000" accel="2.347000" decel="4.337000" sigma="0.5" minGap="2.606604" maxSpeed="138.600119" guiShape="passenger" />
   <vehicle id="straightN_29" type="vehicleN_29" route="edgeN_edgeS" depart="25" departLane="1" />

   <vType id="vehicleS_30" length="4.358000" accel="3.774000" decel="5.883000" sigma="0.5" minGap="2.606604" maxSpeed="138.600119" guiShape="passenger" />
   <vehicle id="straightS_30" type="vehicleS_30" route="edgeS_edgeN" depart="25" departLane="1" />

   <vType id="vehicleE_31" length="5.103000" accel="3.241000" decel="6.273000" sigma="0.5" minGap="2.606604" maxSpeed="138.600119" guiShape="passenger" />
   <vehicle id="straightE_31" type="vehicleE_31" route="edgeE_edgeW" depart="25" departLane="1" />

   <vType id="vehicleE_32" length="4.357000" accel="3.701000" decel="5.377000" sigma="0.5" minGap="2.606604" maxSpeed="138.600119" guiShape="passenger" />
   <vehicle id="straightE_32" type="vehicleE_32" route="edgeE_edgeW" depart="26" departLane="1" />

   <vType id="vehicleN_33" length="5.126000" accel="2.564000" decel="4.981000" sigma="0.5" minGap="2.606604" maxSpeed="138.600119" guiShape="passenger" />
   <vehicle id="straightN_33" type="vehicleN_33" route="edgeN_edgeS" depart="27" departLane="2" />

   <vType id="vehicleW_34" length="3.994000" accel="3.278000" decel="5.695000" sigma="0.5" minGap="2.606604" maxSpeed="138.600119" guiShape="passenger" />
   <vehicle id="straightW_34" type="vehicleW_34" route="edgeW_edgeE" depart="27" departLane="1" />

   <vType id="vehicleE_35" length="4.990000" accel="2.661000" decel="5.373000" sigma="0.5" minGap="2.606604" maxSpeed="138.600119" guiShape="passenger" />
   <vehicle id="straightE_35" type="vehicleE_35" route="edgeE_edgeW" depart="27" departLane="1" />

   <vType id="vehicleS_36" length="5.081000" accel="2.474000" decel="2.793000" sigma="0.5" minGap="2.606604" maxSpeed="138.600119" guiShape="passenger" />
   <vehicle id="straightS_36" type="vehicleS_36" route="edgeS_edgeN" depart="28" departLane="2" />

   <vType id="vehicleE_37" length="4.431000" accel="3.717000" decel="5.573000" sigma="0.5" minGap="2.606604" maxSpeed="138.600119" guiShape="passenger" />
   <vehicle id="straightE_37" type="vehicleE_37" route="edgeE_edgeW" depart="28" departLane="1" />

   <vType id="vehicleW_38" length="5.233000" accel="3.692000" decel="4.148000" sigma="0.5" minGap="2.606604" maxSpeed="138.600119" guiShape="passenger" />
   <vehicle id="straightW_38" type="vehicleW_38" route="edgeW_edgeE" depart="29" departLane="1" />

   <vType id="vehicleN_39" length="5.266000" accel="2.520000" decel="4.169000" sigma="0.5" minGap="2.606604" maxSpeed="138.600119" guiShape="passenger" />
   <vehicle id="leftN_39" type="vehicleN_39" route="edgeN_edgeE" depart="30" departLane="2" />

   <vType id="vehicleS_40" length="5.366000" accel="2.596000" decel="5.648000" sigma="0.5" minGap="2.606604" maxSpeed="138.600119" guiShape="passenger" />
   <vehicle id="straightS_40" type="vehicleS_40" route="edgeS_edgeN" depart="32" departLane="2" />

   <vType id="vehicleN_41" length="5.221000" accel="2.809000" decel="4.524000" sigma="0.5" minGap="2.606604" maxSpeed="138.600119" guiShape="passenger" />
   <vehicle id="leftN_41" type="vehicleN_41" route="edgeN_edgeE" depart="34" departLane="3" />

   <vType id="vehicleW_42" length="4.211000" accel="3.822000" decel="3.632000" sigma="0.5" minGap="2.606604" maxSpeed="138.600119" guiShape="passenger" />
   <vehicle id="straightW_42" type="vehicleW_42" route="edgeW_edgeE" depart="34" departLane="1" />

   <vType id="vehicleN_43" length="4.230000" accel="2.301000" decel="4.256000" sigma="0.5" minGap="2.606604" maxSpeed="138.600119" guiShape="passenger" />
   <vehicle id="straightN_43" type="vehicleN_43" route="edgeN_edgeS" depart="36" departLane="1" />

   <vType id="vehicleW_44" length="4.468000" accel="2.747000" decel="5.763000" sigma="0.5" minGap="2.606604" maxSpeed="138.600119" guiShape="passenger" />
   <vehicle id="straightW_44" type="vehicleW_44" route="edgeW_edgeE" depart="36" departLane="1" />

   <vType id="vehicleN_45" length="4.551000" accel="3.467000" decel="3.297000" sigma="0.5" minGap="2.606604" maxSpeed="138.600119" guiShape="passenger" />
   <vehicle id="straightN_45" type="vehicleN_45" route="edgeN_edgeS" depart="38" departLane="2" />

   <vType id="vehicleN_46" length="4.938000" accel="2.761000" decel="4.277000" sigma="0.5" minGap="2.606604" maxSpeed="138.600119" guiShape="passenger" />
   <vehicle id="straightN_46" type="vehicleN_46" route="edgeN_edgeS" depart="39" departLane="1" />

   <vType id="vehicleS_47" length="4.306000" accel="2.741000" decel="5.612000" sigma="0.5" minGap="2.606604" maxSpeed="138.600119" guiShape="passenger" />
   <vehicle id="straightS_47" type="vehicleS_47" route="edgeS_edgeN" depart="41" departLane="1" />

   <vType id="vehicleW_48" length="4.715000" accel="3.635000" decel="2.927000" sigma="0.5" minGap="2.606604" maxSpeed="138.600119" guiShape="passenger" />
   <vehicle id="straightW_48" type="vehicleW_48" route="edgeW_edgeE" depart="41" departLane="1" />

   <vType id="vehicleN_49" length="5.424000" accel="3.653000" decel="5.900000" sigma="0.5" minGap="2.606604" maxSpeed="138.600119" guiShape="passenger" />
   <vehicle id="straightN_49" type="vehicleN_49" route="edgeN_edgeS" depart="43" departLane="2" />

   <vType id="vehicleE_50" length="4.697000" accel="3.107000" decel="4.706000" sigma="0.5" minGap="2.606604" maxSpeed="138.600119" guiShape="passenger" />
   <vehicle id="straightE_50" type="vehicleE_50" route="edgeE_edgeW" depart="44" departLane="1" />

   <vType id="vehicleW_51" length="4.991000" accel="3.496000" decel="4.568000" sigma="0.5" minGap="2.606604" maxSpeed="138.600119" guiShape="passenger" />
   <vehicle id="straightW_51" type="vehicleW_51" route="edgeW_edgeE" depart="47" departLane="1" />

   <vType id="vehicleN_52" length="4.369000" accel="2.757000" decel="4.637000" sigma="0.5" minGap="2.606604" maxSpeed="138.600119" guiShape="passenger" />
   <vehicle id="straightN_52" type="vehicleN_52" route="edgeN_edgeS" depart="48" departLane="1" />

   <vType id="vehicleS_53" length="4.167000" accel="2.582000" decel="4.179000" sigma="0.5" minGap="2.606604" maxSpeed="138.600119" guiShape="passenger" />
   <vehicle id="straightS_53" type="vehicleS_53" route="edgeS_edgeN" depart="48" departLane="2" />

   <vType id="vehicleN_54" length="5.444000" accel="3.195000" decel="5.205000" sigma="0.5" minGap="2.606604" maxSpeed="138.600119" guiShape="passenger" />
   <vehicle id="straightN_54" type="vehicleN_54" route="edgeN_edgeS" depart="49" departLane="2" />

   <vType id="vehicleN_55" length="4.568000" accel="3.335000" decel="5.581000" sigma="0.5" minGap="2.606604" maxSpeed="138.600119" guiShape="passenger" />
   <vehicle id="straightN_55" type="vehicleN_55" route="edgeN_edgeS" depart="52" departLane="1" />

   <vType id="vehicleN_56" length="5.380000" accel="2.528000" decel="3.613000" sigma="0.5" minGap="2.606604" maxSpeed="138.600119" guiShape="passenger" />
   <vehicle id="straightN_56" type="vehicleN_56" route="edgeN_edgeS" depart="54" departLane="2" />

   <vType id="vehicleN_57" length="4.824000" accel="3.884000" decel="3.941000" sigma="0.5" minGap="2.606604" maxSpeed="138.600119" guiShape="passenger" />
   <vehicle id="leftN_57" type="vehicleN_57" route="edgeN_edgeE" depart="56" departLane="2" />

   <vType id="vehicleW_58" length="4.122000" accel="3.336000" decel="4.724000" sigma="0.5" minGap="2.606604" maxSpeed="138.600119" guiShape="passenger" />
   <vehicle id="straightW_58" type="vehicleW_58" route="edgeW_edgeE" depart="57" departLane="1" />

   <vType id="vehicleN_59" length="4.937000" accel="3.824000" decel="5.289000" sigma="0.5" minGap="2.606604" maxSpeed="138.600119" guiShape="passenger" />
   <vehicle id="straightN_59" type="vehicleN_59" route="edgeN_edgeS" depart="58" departLane="1" />

   <vType id="vehicleW_60" length="4.437000" accel="3.349000" decel="6.166000" sigma="0.5" minGap="2.606604" maxSpeed="138.600119" guiShape="passenger" />
   <vehicle id="straightW_60" type="vehicleW_60" route="edgeW_edgeE" depart="58" departLane="1" />

   <vType id="vehicleN_61" length="5.318000" accel="2.629000" decel="5.211000" sigma="0.5" minGap="2.606604" maxSpeed="138.600119" guiShape="passenger" />
   <vehicle id="straightN_61" type="vehicleN_61" route="edgeN_edgeS" depart="59" departLane="2" />

   <vType id="vehicleE_62" length="5.237000" accel="2.802000" decel="4.228000" sigma="0.5" minGap="2.606604" maxSpeed="138.600119" guiShape="passenger" />
   <vehicle id="straightE_62" type="vehicleE_62" route="edgeE_edgeW" depart="59" departLane="1" />

   <vType id="vehicleN_63" length="3.929000" accel="2.923000" decel="4.454000" sigma="0.5" minGap="2.606604" maxSpeed="138.600119" guiShape="passenger" />
   <vehicle id="straightN_63" type="vehicleN_63" route="edgeN_edgeS" depart="60" departLane="2" />

   <vType id="vehicleN_64" length="4.822000" accel="3.028000" decel="4.254000" sigma="0.5" minGap="2.606604" maxSpeed="138.600119" guiShape="passenger" />
   <vehicle id="straightN_64" type="vehicleN_64" route="edgeN_edgeS" depart="62" departLane="2" />

   <vType id="vehicleW_65" length="4.381000" accel="2.974000" decel="5.406000" sigma="0.5" minGap="2.606604" maxSpeed="138.600119" guiShape="passenger" />
   <vehicle id="straightW_65" type="vehicleW_65" route="edgeW_edgeE" depart="62" departLane="1" />

   <vType id="vehicleN_66" length="4.920000" accel="3.686000" decel="4.694000" sigma="0.5" minGap="2.606604" maxSpeed="138.600119" guiShape="passenger" />
   <vehicle id="straightN_66" type="vehicleN_66" route="edgeN_edgeS" depart="64" departLane="1" />

   <vType id="vehicleS_67" length="4.737000" accel="3.483000" decel="5.187000" sigma="0.5" minGap="2.606604" maxSpeed="138.600119" guiShape="passenger" />
   <vehicle id="straightS_67" type="vehicleS_67" route="edgeS_edgeN" depart="64" departLane="2" />

   <vType id="vehicleE_68" length="4.594000" accel="2.630000" decel="5.090000" sigma="0.5" minGap="2.606604" maxSpeed="138.600119" guiShape="passenger" />
   <vehicle id="straightE_68" type="vehicleE_68" route="edgeE_edgeW" depart="64" departLane="1" />

   <vType id="vehicleN_69" length="4.368000" accel="2.644000" decel="3.102000" sigma="0.5" minGap="2.606604" maxSpeed="138.600119" guiShape="passenger" />
   <vehicle id="straightN_69" type="vehicleN_69" route="edgeN_edgeS" depart="66" departLane="1" />

   <vType id="vehicleS_70" length="4.000000" accel="2.711000" decel="6.115000" sigma="0.5" minGap="2.606604" maxSpeed="138.600119" guiShape="passenger" />
   <vehicle id="leftS_70" type="vehicleS_70" route="edgeS_edgeW" depart="70" departLane="3" />

   <vType id="vehicleW_71" length="4.390000" accel="3.020000" decel="3.907000" sigma="0.5" minGap="2.606604" maxSpeed="138.600119" guiShape="passenger" />
   <vehicle id="straightW_71" type="vehicleW_71" route="edgeW_edgeE" depart="70" departLane="1" />

   <vType id="vehicleS_72" length="4.743000" accel="3.183000" decel="5.172000" sigma="0.5" minGap="2.606604" maxSpeed="138.600119" guiShape="passenger" />
   <vehicle id="leftS_72" type="vehicleS_72" route="edgeS_edgeW" depart="71" departLane="2" />

   <vType id="vehicleW_73" length="4.424000" accel="3.874000" decel="3.094000" sigma="0.5" minGap="2.606604" maxSpeed="138.600119" guiShape="passenger" />
   <vehicle id="straightW_73" type="vehicleW_73" route="edgeW_edgeE" depart="71" departLane="1" />

   <vType id="vehicleN_74" length="5.029000" accel="2.487000" decel="3.297000" sigma="0.5" minGap="2.606604" maxSpeed="138.600119" guiShape="passenger" />
   <vehicle id="straightN_74" type="vehicleN_74" route="edgeN_edgeS" depart="75" departLane="1" />

   <vType id="vehicleS_75" length="5.078000" accel="3.006000" decel="2.780000" sigma="0.5" minGap="2.606604" maxSpeed="138.600119" guiShape="passenger" />
   <vehicle id="straightS_75" type="vehicleS_75" route="edgeS_edgeN" depart="75" departLane="2" />

   <vType id="vehicleN_76" length="4.430000" accel="3.468000" decel="4.743000" sigma="0.5" minGap="2.606604" maxSpeed="138.600119" guiShape="passenger" />
   <vehicle id="leftN_76" type="vehicleN_76" route="edgeN_edgeE" depart="79" departLane="3" />

   <vType id="vehicleN_77" length="5.053000" accel="3.653000" decel="4.809000" sigma="0.5" minGap="2.606604" maxSpeed="138.600119" guiShape="passenger" />
   <vehicle id="straightN_77" type="vehicleN_77" route="edgeN_edgeS" depart="82" departLane="1" />

   <vType id="vehicleN_78" length="4.707000" accel="3.307000" decel="6.012000" sigma="0.5" minGap="2.606604" maxSpeed="138.600119" guiShape="passenger" />
   <vehicle id="straightN_78" type="vehicleN_78" route="edgeN_edgeS" depart="83" departLane="1" />

   <vType id="vehicleN_79" length="4.607000" accel="3.048000" decel="5.085000" sigma="0.5" minGap="2.606604" maxSpeed="138.600119" guiShape="passenger" />
   <vehicle id="leftN_79" type="vehicleN_79" route="edgeN_edgeE" depart="85" departLane="3" />

   <vType id="vehicleN_80" length="5.555000" accel="2.897000" decel="4.543000" sigma="0.5" minGap="2.606604" maxSpeed="138.600119" guiShape="passenger" />
   <vehicle id="straightN_80" type="vehicleN_80" route="edgeN_edgeS" depart="86" departLane="1" />

   <vType id="vehicleN_81" length="5.192000" accel="3.263000" decel="5.441000" sigma="0.5" minGap="2.606604" maxSpeed="138.600119" guiShape="passenger" />
   <vehicle id="straightN_81" type="vehicleN_81" route="edgeN_edgeS" depart="87" departLane="1" />

   <vType id="vehicleW_82" length="5.404000" accel="3.030000" decel="2.766000" sigma="0.5" minGap="2.606604" maxSpeed="138.600119" guiShape="passenger" />
   <vehicle id="straightW_82" type="vehicleW_82" route="edgeW_edgeE" depart="87" departLane="1" />

   <vType id="vehicleN_83" length="4.600000" accel="2.599000" decel="5.739000" sigma="0.5" minGap="2.606604" maxSpeed="138.600119" guiShape="passenger" />
   <vehicle id="leftN_83" type="vehicleN_83" route="edgeN_edgeE" depart="88" departLane="2" />

   <vType id="vehicleW_84" length="4.754000" accel="3.415000" decel="4.523000" sigma="0.5" minGap="2.606604" maxSpeed="138.600119" guiShape="passenger" />
   <vehicle id="straightW_84" type="vehicleW_84" route="edgeW_edgeE" depart="88" departLane="1" />

   <vType id="vehicleE_85" length="4.926000" accel="3.464000" decel="3.160000" sigma="0.5" minGap="2.606604" maxSpeed="138.600119" guiShape="passenger" />
   <vehicle id="straightE_85" type="vehicleE_85" route="edgeE_edgeW" depart="89" departLane="1" />

   <vType id="vehicleN_86" length="4.612000" accel="3.775000" decel="4.518000" sigma="0.5" minGap="2.606604" maxSpeed="138.600119" guiShape="passenger" />
   <vehicle id="straightN_86" type="vehicleN_86" route="edgeN_edgeS" depart="90" departLane="1" />

   <vType id="vehicleW_87" length="4.494000" accel="3.142000" decel="4.649000" sigma="0.5" minGap="2.606604" maxSpeed="138.600119" guiShape="passenger" />
   <vehicle id="straightW_87" type="vehicleW_87" route="edgeW_edgeE" depart="91" departLane="1" />

   <vType id="vehicleW_88" length="5.362000" accel="2.908000" decel="3.825000" sigma="0.5" minGap="2.606604" maxSpeed="138.600119" guiShape="passenger" />
   <vehicle id="straightW_88" type="vehicleW_88" route="edgeW_edgeE" depart="92" departLane="1" />

   <vType id="vehicleW_89" length="4.910000" accel="3.668000" decel="5.859000" sigma="0.5" minGap="2.606604" maxSpeed="138.600119" guiShape="passenger" />
   <vehicle id="straightW_89" type="vehicleW_89" route="edgeW_edgeE" depart="94" departLane="1" />

   <vType id="vehicleE_90" length="3.933000" accel="2.466000" decel="5.847000" sigma="0.5" minGap="2.606604" maxSpeed="138.600119" guiShape="passenger" />
   <vehicle id="straightE_90" type="vehicleE_90" route="edgeE_edgeW" depart="94" departLane="1" />

   <vType id="vehicleN_91" length="4.358000" accel="3.260000" decel="4.115000" sigma="0.5" minGap="2.606604" maxSpeed="138.600119" guiShape="passenger" />
   <vehicle id="straightN_91" type="vehicleN_91" route="edgeN_edgeS" depart="95" departLane="1" />

   <vType id="vehicleS_92" length="4.980000" accel="3.753000" decel="6.310000" sigma="0.5" minGap="2.606604" maxSpeed="138.600119" guiShape="passenger" />
   <vehicle id="leftS_92" type="vehicleS_92" route="edgeS_edgeW" depart="97" departLane="2" />

   <vType id="vehicleE_93" length="5.390000" accel="2.962000" decel="5.200000" sigma="0.5" minGap="2.606604" maxSpeed="138.600119" guiShape="passenger" />
   <vehicle id="straightE_93" type="vehicleE_93" route="edgeE_edgeW" depart="97" departLane="1" />

   <vType id="vehicleN_94" length="4.406000" accel="2.848000" decel="3.193000" sigma="0.5" minGap="2.606604" maxSpeed="138.600119" guiShape="passenger" />
   <vehicle id="straightN_94" type="vehicleN_94" route="edgeN_edgeS" depart="98" departLane="2" />

   <vType id="vehicleE_95" length="5.387000" accel="3.254000" decel="3.542000" sigma="0.5" minGap="2.606604" maxSpeed="138.600119" guiShape="passenger" />
   <vehicle id="straightE_95" type="vehicleE_95" route="edgeE_edgeW" depart="98" departLane="1" />

   <vType id="vehicleN_96" length="4.688000" accel="3.332000" decel="5.949000" sigma="0.5" minGap="2.606604" maxSpeed="138.600119" guiShape="passenger" />
   <vehicle id="straightN_96" type="vehicleN_96" route="edgeN_edgeS" depart="99" departLane="2" />

   <vType id="vehicleE_97" length="4.494000" accel="3.201000" decel="4.998000" sigma="0.5" minGap="2.606604" maxSpeed="138.600119" guiShape="passenger" />
   <vehicle id="straightE_97" type="vehicleE_97" route="edgeE_edgeW" depart="99" departLane="1" />

   <vType id="vehicleS_98" length="4.517000" accel="2.717000" decel="5.219000" sigma="0.5" minGap="2.606604" maxSpeed="138.600119" guiShape="passenger" />
   <vehicle id="straightS_98" type="vehicleS_98" route="edgeS_edgeN" depart="101" departLane="1" />

   <vType id="vehicleN_99" length="5.072000" accel="3.461000" decel="2.840000" sigma="0.5" minGap="2.606604" maxSpeed="138.600119" guiShape="passenger" />
   <vehicle id="straightN_99" type="vehicleN_99" route="edgeN_edgeS" depart="102" departLane="2" />

   <vType id="vehicleN_100" length="4.279000" accel="2.542000" decel="3.578000" sigma="0.5" minGap="2.606604" maxSpeed="138.600119" guiShape="passenger" />
   <vehicle id="straightN_100" type="vehicleN_100" route="edgeN_edgeS" depart="103" departLane="1" />

   <vType id="vehicleN_101" length="4.892000" accel="3.441000" decel="2.991000" sigma="0.5" minGap="2.606604" maxSpeed="138.600119" guiShape="passenger" />
   <vehicle id="straightN_101" type="vehicleN_101" route="edgeN_edgeS" depart="104" departLane="2" />

   <vType id="vehicleN_102" length="5.460000" accel="3.792000" decel="6.200000" sigma="0.5" minGap="2.606604" maxSpeed="138.600119" guiShape="passenger" />
   <vehicle id="leftN_102" type="vehicleN_102" route="edgeN_edgeE" depart="106" departLane="3" />

   <vType id="vehicleE_103" length="4.147000" accel="3.829000" decel="5.808000" sigma="0.5" minGap="2.606604" maxSpeed="138.600119" guiShape="passenger" />
   <vehicle id="straightE_103" type="vehicleE_103" route="edgeE_edgeW" depart="106" departLane="1" />

   <vType id="vehicleN_104" length="4.680000" accel="3.342000" decel="5.121000" sigma="0.5" minGap="2.606604" maxSpeed="138.600119" guiShape="passenger" />
   <vehicle id="straightN_104" type="vehicleN_104" route="edgeN_edgeS" depart="108" departLane="2" />

   <vType id="vehicleE_105" length="3.950000" accel="3.692000" decel="4.715000" sigma="0.5" minGap="2.606604" maxSpeed="138.600119" guiShape="passenger" />
   <vehicle id="straightE_105" type="vehicleE_105" route="edgeE_edgeW" depart="108" departLane="1" />

   <vType id="vehicleS_106" length="3.971000" accel="3.877000" decel="3.086000" sigma="0.5" minGap="2.606604" maxSpeed="138.600119" guiShape="passenger" />
   <vehicle id="leftS_106" type="vehicleS_106" route="edgeS_edgeW" depart="110" departLane="2" />

   <vType id="vehicleE_107" length="5.046000" accel="3.459000" decel="6.122000" sigma="0.5" minGap="2.606604" maxSpeed="138.600119" guiShape="passenger" />
   <vehicle id="straightE_107" type="vehicleE_107" route="edgeE_edgeW" depart="110" departLane="1" />

   <vType id="vehicleS_108" length="5.552000" accel="3.800000" decel="5.676000" sigma="0.5" minGap="2.606604" maxSpeed="138.600119" guiShape="passenger" />
   <vehicle id="straightS_108" type="vehicleS_108" route="edgeS_edgeN" depart="115" departLane="1" />
