<?xml version="1.0" encoding="UTF-8"?>

<!-- generated on 2021-10-23 05:40:45 by Eclipse SUMO netconvert Version 1.10.0
<configuration xmlns:xsi="http://www.w3.org/2001/XMLSchema-instance" xsi:noNamespaceSchemaLocation="http://sumo.dlr.de/xsd/netconvertConfiguration.xsd">

    <input>
        <node-files value="data8/cross.nod.xml"/>
        <edge-files value="data8/cross.edg.xml"/>
        <connection-files value="data8/cross.con.xml"/>
    </input>

    <output>
        <output-file value="data8/cross.net.xml"/>
    </output>

    <junctions>
        <no-turnarounds.except-turnlane value="true"/>
    </junctions>

    <report>
        <aggregate-warnings value="5"/>
    </report>

</configuration>
-->

<net version="1.9" junctionCornerDetail="5" limitTurnSpeed="5.50" xmlns:xsi="http://www.w3.org/2001/XMLSchema-instance" xsi:noNamespaceSchemaLocation="http://sumo.dlr.de/xsd/net_file.xsd">

    <location netOffset="400.00,700.00" convBoundary="0.00,0.00,1200.00,1700.00" origBoundary="-400.00,-700.00,800.00,1000.00" projParameter="!"/>

    <edge id=":juncE_0" function="internal">
        <lane id=":juncE_0_0" index="0" disallow="pedestrian" speed="3.65" length="4.67" shape="1200.00,698.40 1201.20,699.20 1201.60,700.00 1201.20,700.80 1200.00,701.60"/>
    </edge>
    <edge id=":juncE_w0" function="walkingarea">
        <lane id=":juncE_w0_0" index="0" allow="pedestrian" speed="1.00" length="9.60" width="3.20" shape="1200.00,703.20 1200.00,706.40 1200.00,693.60 1200.00,696.80"/>
    </edge>
    <edge id=":juncMain_0" function="internal">
        <lane id=":juncMain_0_0" index="0" disallow="pedestrian" speed="18.47" length="15.80" shape="392.00,707.90 392.00,692.10"/>
        <lane id=":juncMain_0_1" index="1" disallow="pedestrian" speed="18.47" length="15.80" shape="395.20,707.90 395.20,692.10"/>
    </edge>
    <edge id=":juncMain_2" function="internal">
        <lane id=":juncMain_2_0" index="0" disallow="pedestrian" speed="9.93" length="17.87" shape="395.20,707.90 397.18,704.41 402.08,701.37 408.32,699.22 409.80,699.01"/>
        <lane id=":juncMain_2_1" index="1" disallow="pedestrian" speed="9.32" length="15.09" shape="398.40,707.90 400.02,704.41 404.03,701.37 409.21,699.22 409.80,699.12"/>
    </edge>
    <edge id=":juncMain_4" function="internal">
        <lane id=":juncMain_4_0" index="0" disallow="pedestrian" speed="3.65" length="4.67" shape="398.40,707.90 399.20,706.70 400.00,706.30 400.80,706.70 401.60,707.90"/>
    </edge>
    <edge id=":juncMain_12" function="internal">
        <lane id=":juncMain_12_0" index="0" disallow="pedestrian" speed="9.93" length="4.54" shape="409.80,699.01 414.30,698.40"/>
    </edge>
    <edge id=":juncMain_13" function="internal">
        <lane id=":juncMain_13_0" index="0" disallow="pedestrian" speed="9.32" length="4.56" shape="409.80,699.12 414.30,698.40"/>
    </edge>
    <edge id=":juncMain_5" function="internal">
        <lane id=":juncMain_5_0" index="0" disallow="pedestrian" speed="19.79" length="28.60" shape="414.30,701.60 385.70,701.60"/>
    </edge>
    <edge id=":juncMain_6" function="internal">
        <lane id=":juncMain_6_0" index="0" disallow="pedestrian" speed="18.47" length="15.80" shape="408.00,692.10 408.00,707.90"/>
        <lane id=":juncMain_6_1" index="1" disallow="pedestrian" speed="18.47" length="15.80" shape="404.80,692.10 404.80,707.90"/>
    </edge>
    <edge id=":juncMain_8" function="internal">
        <lane id=":juncMain_8_0" index="0" disallow="pedestrian" speed="9.93" length="17.87" shape="404.80,692.10 402.82,695.59 397.92,698.63 391.68,700.78 390.20,700.99"/>
        <lane id=":juncMain_8_1" index="1" disallow="pedestrian" speed="9.32" length="15.09" shape="401.60,692.10 399.98,695.59 395.97,698.63 390.79,700.78 390.20,700.88"/>
    </edge>
    <edge id=":juncMain_10" function="internal">
        <lane id=":juncMain_10_0" index="0" disallow="pedestrian" speed="3.65" length="4.67" shape="401.60,692.10 400.80,693.30 400.00,693.70 399.20,693.30 398.40,692.10"/>
    </edge>
    <edge id=":juncMain_14" function="internal">
        <lane id=":juncMain_14_0" index="0" disallow="pedestrian" speed="9.93" length="4.54" shape="390.20,700.99 385.70,701.60"/>
    </edge>
    <edge id=":juncMain_15" function="internal">
        <lane id=":juncMain_15_0" index="0" disallow="pedestrian" speed="9.32" length="4.56" shape="390.20,700.88 385.70,701.60"/>
    </edge>
    <edge id=":juncMain_11" function="internal">
        <lane id=":juncMain_11_0" index="0" disallow="pedestrian" speed="19.79" length="28.60" shape="385.70,698.40 414.30,698.40"/>
    </edge>
    <edge id=":juncMain_c0" function="crossing" crossingEdges="edgeN_I edgeN_O">
        <lane id=":juncMain_c0_0" index="0" allow="pedestrian" speed="1.00" length="19.20" width="4.50" shape="409.60,705.65 390.40,705.65"/>
    </edge>
    <edge id=":juncMain_c1" function="crossing" crossingEdges="edgeE_I edgeE_O">
        <lane id=":juncMain_c1_0" index="0" allow="pedestrian" speed="1.00" length="6.40" width="4.50" shape="412.05,696.80 412.05,703.20"/>
    </edge>
    <edge id=":juncMain_c2" function="crossing" crossingEdges="edgeS_I edgeS_O">
        <lane id=":juncMain_c2_0" index="0" allow="pedestrian" speed="1.00" length="19.20" width="4.50" shape="390.40,694.35 409.60,694.35"/>
    </edge>
    <edge id=":juncMain_c3" function="crossing" crossingEdges="edgeW_I edgeW_O">
        <lane id=":juncMain_c3_0" index="0" allow="pedestrian" speed="1.00" length="6.40" width="4.50" shape="387.95,703.20 387.95,696.80"/>
    </edge>
    <edge id=":juncMain_w0" function="walkingarea">
        <lane id=":juncMain_w0_0" index="0" allow="pedestrian" speed="1.00" length="3.82" width="4.50" shape="385.70,703.20 385.70,706.40 387.20,707.90 390.40,707.90 390.27,706.46 389.88,705.29 389.22,704.38 388.31,703.72 387.14,703.33"/>
    </edge>
    <edge id=":juncMain_w1" function="walkingarea">
        <lane id=":juncMain_w1_0" index="0" allow="pedestrian" speed="1.00" length="3.82" width="4.50" shape="409.60,707.90 412.80,707.90 414.30,706.40 414.30,703.20 412.86,703.33 411.69,703.72 410.77,704.38 410.12,705.29 409.73,706.46"/>
    </edge>
    <edge id=":juncMain_w2" function="walkingarea">
        <lane id=":juncMain_w2_0" index="0" allow="pedestrian" speed="1.00" length="3.82" width="4.50" shape="414.30,696.80 414.30,693.60 412.80,692.10 409.60,692.10 409.73,693.54 410.12,694.71 410.78,695.62 411.69,696.28 412.86,696.67"/>
    </edge>
    <edge id=":juncMain_w3" function="walkingarea">
        <lane id=":juncMain_w3_0" index="0" allow="pedestrian" speed="1.00" length="3.82" width="4.50" shape="390.40,692.10 387.20,692.10 385.70,693.60 385.70,696.80 387.14,696.67 388.31,696.28 389.23,695.62 389.88,694.71 390.27,693.54"/>
    </edge>
    <edge id=":juncN_0" function="internal">
        <lane id=":juncN_0_0" index="0" disallow="pedestrian" speed="3.65" length="4.67" shape="401.60,1700.00 400.80,1701.20 400.00,1701.60 399.20,1701.20 398.40,1700.00"/>
    </edge>
    <edge id=":juncN_w0" function="walkingarea">
        <lane id=":juncN_w0_0" index="0" allow="pedestrian" speed="1.00" length="22.40" width="3.20" shape="390.40,1700.00 387.20,1700.00 412.80,1700.00 409.60,1700.00"/>
    </edge>
    <edge id=":juncS_0" function="internal">
        <lane id=":juncS_0_0" index="0" disallow="pedestrian" speed="3.65" length="4.67" shape="398.40,0.00 399.20,-1.20 400.00,-1.60 400.80,-1.20 401.60,0.00"/>
    </edge>
    <edge id=":juncS_w0" function="walkingarea">
        <lane id=":juncS_w0_0" index="0" allow="pedestrian" speed="1.00" length="22.40" width="3.20" shape="409.60,0.00 412.80,0.00 387.20,0.00 390.40,0.00"/>
    </edge>
    <edge id=":juncW_0" function="internal">
        <lane id=":juncW_0_0" index="0" disallow="pedestrian" speed="3.65" length="4.67" shape="0.00,701.60 -1.20,700.80 -1.60,700.00 -1.20,699.20 0.00,698.40"/>
    </edge>
    <edge id=":juncW_w0" function="walkingarea">
        <lane id=":juncW_w0_0" index="0" allow="pedestrian" speed="1.00" length="9.60" width="3.20" shape="0.00,696.80 0.00,693.60 0.00,706.40 0.00,703.20"/>
    </edge>

    <edge id="edgeE_I" from="juncMain" to="juncE" priority="46">
        <lane id="edgeE_I_0" index="0" allow="pedestrian" speed="16.84" length="785.70" shape="414.30,695.20 1200.00,695.20"/>
        <lane id="edgeE_I_1" index="1" disallow="pedestrian" speed="16.84" length="785.70" shape="414.30,698.40 1200.00,698.40"/>
    </edge>
    <edge id="edgeE_O" from="juncE" to="juncMain" priority="78">
        <lane id="edgeE_O_0" index="0" allow="pedestrian" speed="22.75" length="785.70" shape="1200.00,704.80 414.30,704.80"/>
        <lane id="edgeE_O_1" index="1" disallow="pedestrian" speed="22.75" length="785.70" shape="1200.00,701.60 414.30,701.60"/>
    </edge>
    <edge id="edgeN_I" from="juncMain" to="juncN" priority="46">
        <lane id="edgeN_I_0" index="0" allow="pedestrian" speed="23.29" length="992.10" shape="411.20,707.90 411.20,1700.00"/>
        <lane id="edgeN_I_1" index="1" disallow="pedestrian" speed="23.29" length="992.10" shape="408.00,707.90 408.00,1700.00"/>
        <lane id="edgeN_I_2" index="2" disallow="pedestrian" speed="23.29" length="992.10" shape="404.80,707.90 404.80,1700.00"/>
        <lane id="edgeN_I_3" index="3" disallow="pedestrian" speed="23.29" length="992.10" shape="401.60,707.90 401.60,1700.00"/>
    </edge>
    <edge id="edgeN_O" from="juncN" to="juncMain" priority="78">
        <lane id="edgeN_O_0" index="0" allow="pedestrian" speed="13.66" length="992.10" shape="388.80,1700.00 388.80,707.90"/>
        <lane id="edgeN_O_1" index="1" disallow="pedestrian" speed="13.66" length="992.10" shape="392.00,1700.00 392.00,707.90"/>
        <lane id="edgeN_O_2" index="2" disallow="pedestrian" speed="13.66" length="992.10" shape="395.20,1700.00 395.20,707.90"/>
        <lane id="edgeN_O_3" index="3" disallow="pedestrian" speed="13.66" length="992.10" shape="398.40,1700.00 398.40,707.90"/>
    </edge>
    <edge id="edgeS_I" from="juncMain" to="juncS" priority="46">
        <lane id="edgeS_I_0" index="0" allow="pedestrian" speed="23.29" length="692.10" shape="388.80,692.10 388.80,0.00"/>
        <lane id="edgeS_I_1" index="1" disallow="pedestrian" speed="23.29" length="692.10" shape="392.00,692.10 392.00,0.00"/>
        <lane id="edgeS_I_2" index="2" disallow="pedestrian" speed="23.29" length="692.10" shape="395.20,692.10 395.20,0.00"/>
        <lane id="edgeS_I_3" index="3" disallow="pedestrian" speed="23.29" length="692.10" shape="398.40,692.10 398.40,0.00"/>
    </edge>
    <edge id="edgeS_O" from="juncS" to="juncMain" priority="78">
        <lane id="edgeS_O_0" index="0" allow="pedestrian" speed="13.66" length="692.10" shape="411.20,0.00 411.20,692.10"/>
        <lane id="edgeS_O_1" index="1" disallow="pedestrian" speed="13.66" length="692.10" shape="408.00,0.00 408.00,692.10"/>
        <lane id="edgeS_O_2" index="2" disallow="pedestrian" speed="13.66" length="692.10" shape="404.80,0.00 404.80,692.10"/>
        <lane id="edgeS_O_3" index="3" disallow="pedestrian" speed="13.66" length="692.10" shape="401.60,0.00 401.60,692.10"/>
    </edge>
    <edge id="edgeW_I" from="juncMain" to="juncW" priority="46">
        <lane id="edgeW_I_0" index="0" allow="pedestrian" speed="16.84" length="385.70" shape="385.70,704.80 0.00,704.80"/>
        <lane id="edgeW_I_1" index="1" disallow="pedestrian" speed="16.84" length="385.70" shape="385.70,701.60 0.00,701.60"/>
    </edge>
    <edge id="edgeW_O" from="juncW" to="juncMain" priority="78">
        <lane id="edgeW_O_0" index="0" allow="pedestrian" speed="22.75" length="385.70" shape="0.00,695.20 385.70,695.20"/>
        <lane id="edgeW_O_1" index="1" disallow="pedestrian" speed="22.75" length="385.70" shape="0.00,698.40 385.70,698.40"/>
    </edge>

    <tlLogic id="juncMain" type="static" programID="0" offset="0">
        <phase duration="20" state="rrrrrGrrrrrGGrGr"/>
        <phase duration="5"  state="rrrrrGrrrrrGrrrr"/>
        <phase duration="5"  state="rrrrryrrrrryrrrr"/>
        <phase duration="20" state="rrrrrrGGggGrrGrG"/>
        <phase duration="5"  state="rrrrrrGGggGrrrrr"/>
        <phase duration="5"  state="rrrrrryyyyyrrrrr"/>
        <phase duration="20" state="GGggGrrrrrrrrGrG"/>
        <phase duration="5"  state="GGggGrrrrrrrrrrr"/>
        <phase duration="5"  state="yyyyyrrrrrrrrrrr"/>
    </tlLogic>

    <junction id="juncE" type="priority" x="1200.00" y="700.00" incLanes="edgeE_I_0 edgeE_I_1" intLanes=":juncE_0_0" shape="1200.00,700.00 1200.00,693.60 1200.00,700.00">
        <request index="0" response="0" foes="0" cont="0"/>
    </junction>
    <junction id="juncMain" type="traffic_light" x="400.00" y="700.00" incLanes="edgeN_O_0 edgeN_O_1 edgeN_O_2 edgeN_O_3 edgeE_O_0 edgeE_O_1 edgeS_O_0 edgeS_O_1 edgeS_O_2 edgeS_O_3 edgeW_O_0 edgeW_O_1 :juncMain_w1_0 :juncMain_w2_0 :juncMain_w3_0 :juncMain_w0_0" intLanes=":juncMain_0_0 :juncMain_0_1 :juncMain_12_0 :juncMain_13_0 :juncMain_4_0 :juncMain_5_0 :juncMain_6_0 :juncMain_6_1 :juncMain_14_0 :juncMain_15_0 :juncMain_10_0 :juncMain_11_0 :juncMain_c0_0 :juncMain_c1_0 :juncMain_c2_0 :juncMain_c3_0" shape="387.20,707.90 412.80,707.90 412.97,707.07 413.18,706.77 413.47,706.57 413.84,706.44 414.30,706.40 414.30,693.60 413.47,693.43 413.18,693.23 412.97,692.93 412.84,692.56 412.80,692.10 387.20,692.10 387.03,692.93 386.82,693.23 386.53,693.43 386.16,693.56 385.70,693.60 385.70,706.40 386.53,706.57 386.82,706.77 387.03,707.07 387.16,707.44">
        <request index="0"  response="0101101100100000" foes="0101101100100000" cont="0"/>
        <request index="1"  response="0101101100100000" foes="0101101100100000" cont="0"/>
        <request index="2"  response="0011100011101000" foes="0011100011101000" cont="1"/>
        <request index="3"  response="0011100011100000" foes="0011100011100100" cont="1"/>
        <request index="4"  response="0001000000000000" foes="0001000000000000" cont="0"/>
        <request index="5"  response="1010001100001100" foes="1010001111001111" cont="0"/>
        <request index="6"  response="0101100000101100" foes="0101100000101100" cont="0"/>
        <request index="7"  response="0101100000101100" foes="0101100000101100" cont="0"/>
        <request index="8"  response="1100101000100011" foes="1100101000100011" cont="1"/>
        <request index="9"  response="1100100000100011" foes="1100100100100011" cont="1"/>
        <request index="10" response="0100000000000000" foes="0100000000000000" cont="0"/>
        <request index="11" response="1010001100001100" foes="1010001111001111" cont="0"/>
        <request index="12" response="0000000000000000" foes="0000000011011111" cont="0"/>
        <request index="13" response="0000000000000000" foes="0000100000101100" cont="0"/>
        <request index="14" response="0000000000000000" foes="0000011111000011" cont="0"/>
        <request index="15" response="0000000000000000" foes="0000101100100000" cont="0"/>
    </junction>
    <junction id="juncN" type="priority" x="400.00" y="1700.00" incLanes="edgeN_I_0 edgeN_I_1 edgeN_I_2 edgeN_I_3" intLanes=":juncN_0_0" shape="400.00,1700.00 412.80,1700.00 400.00,1700.00">
        <request index="0" response="0" foes="0" cont="0"/>
    </junction>
    <junction id="juncS" type="priority" x="400.00" y="0.00" incLanes="edgeS_I_0 edgeS_I_1 edgeS_I_2 edgeS_I_3" intLanes=":juncS_0_0" shape="400.00,0.00 387.20,0.00 400.00,0.00">
        <request index="0" response="0" foes="0" cont="0"/>
    </junction>
    <junction id="juncW" type="priority" x="0.00" y="700.00" incLanes="edgeW_I_0 edgeW_I_1" intLanes=":juncW_0_0" shape="0.00,700.00 0.00,706.40 0.00,700.00">
        <request index="0" response="0" foes="0" cont="0"/>
    </junction>

    <junction id=":juncMain_12_0" type="internal" x="409.80" y="699.01" incLanes=":juncMain_2_0" intLanes=":juncMain_2_1 :juncMain_5_0 :juncMain_6_0 :juncMain_6_1 :juncMain_11_0 :juncMain_c0_0 :juncMain_c1_0"/>
    <junction id=":juncMain_13_0" type="internal" x="409.80" y="699.12" incLanes=":juncMain_2_1" intLanes=":juncMain_2_0 :juncMain_5_0 :juncMain_6_0 :juncMain_6_1 :juncMain_11_0 :juncMain_c0_0 :juncMain_c1_0"/>
    <junction id=":juncMain_14_0" type="internal" x="390.20" y="700.99" incLanes=":juncMain_8_0" intLanes=":juncMain_0_0 :juncMain_0_1 :juncMain_5_0 :juncMain_8_1 :juncMain_11_0 :juncMain_c2_0 :juncMain_c3_0"/>
    <junction id=":juncMain_15_0" type="internal" x="390.20" y="700.88" incLanes=":juncMain_8_1" intLanes=":juncMain_0_0 :juncMain_0_1 :juncMain_5_0 :juncMain_8_0 :juncMain_11_0 :juncMain_c2_0 :juncMain_c3_0"/>

    <connection from="edgeE_I" to="edgeE_O" fromLane="1" toLane="1" via=":juncE_0_0" dir="t" state="M"/>
    <connection from="edgeE_O" to="edgeW_I" fromLane="1" toLane="1" via=":juncMain_5_0" tl="juncMain" linkIndex="5" dir="s" state="o"/>
    <connection from="edgeN_I" to="edgeN_O" fromLane="3" toLane="3" via=":juncN_0_0" dir="t" state="M"/>
    <connection from="edgeN_O" to="edgeS_I" fromLane="1" toLane="1" via=":juncMain_0_0" tl="juncMain" linkIndex="0" dir="s" state="o"/>
    <connection from="edgeN_O" to="edgeS_I" fromLane="2" toLane="2" via=":juncMain_0_1" tl="juncMain" linkIndex="1" dir="s" state="o"/>
    <connection from="edgeN_O" to="edgeE_I" fromLane="2" toLane="1" via=":juncMain_2_0" tl="juncMain" linkIndex="2" dir="l" state="o"/>
    <connection from="edgeN_O" to="edgeE_I" fromLane="3" toLane="1" via=":juncMain_2_1" tl="juncMain" linkIndex="3" dir="l" state="o"/>
    <connection from="edgeN_O" to="edgeN_I" fromLane="3" toLane="3" via=":juncMain_4_0" tl="juncMain" linkIndex="4" dir="t" state="o"/>
    <connection from="edgeS_I" to="edgeS_O" fromLane="3" toLane="3" via=":juncS_0_0" dir="t" state="M"/>
    <connection from="edgeS_O" to="edgeN_I" fromLane="1" toLane="1" via=":juncMain_6_0" tl="juncMain" linkIndex="6" dir="s" state="o"/>
    <connection from="edgeS_O" to="edgeN_I" fromLane="2" toLane="2" via=":juncMain_6_1" tl="juncMain" linkIndex="7" dir="s" state="o"/>
    <connection from="edgeS_O" to="edgeW_I" fromLane="2" toLane="1" via=":juncMain_8_0" tl="juncMain" linkIndex="8" dir="l" state="o"/>
    <connection from="edgeS_O" to="edgeW_I" fromLane="3" toLane="1" via=":juncMain_8_1" tl="juncMain" linkIndex="9" dir="l" state="o"/>
    <connection from="edgeS_O" to="edgeS_I" fromLane="3" toLane="3" via=":juncMain_10_0" tl="juncMain" linkIndex="10" dir="t" state="o"/>
    <connection from="edgeW_I" to="edgeW_O" fromLane="1" toLane="1" via=":juncW_0_0" dir="t" state="M"/>
    <connection from="edgeW_O" to="edgeE_I" fromLane="1" toLane="1" via=":juncMain_11_0" tl="juncMain" linkIndex="11" dir="s" state="o"/>

    <connection from=":juncE_0" to="edgeE_O" fromLane="0" toLane="1" dir="t" state="M"/>
    <connection from=":juncMain_0" to="edgeS_I" fromLane="0" toLane="1" dir="s" state="M"/>
    <connection from=":juncMain_0" to="edgeS_I" fromLane="1" toLane="2" dir="s" state="M"/>
    <connection from=":juncMain_2" to="edgeE_I" fromLane="0" toLane="1" via=":juncMain_12_0" dir="l" state="m"/>
    <connection from=":juncMain_12" to="edgeE_I" fromLane="0" toLane="1" dir="l" state="M"/>
    <connection from=":juncMain_2" to="edgeE_I" fromLane="1" toLane="1" via=":juncMain_13_0" dir="l" state="m"/>
    <connection from=":juncMain_13" to="edgeE_I" fromLane="0" toLane="1" dir="l" state="M"/>
    <connection from=":juncMain_4" to="edgeN_I" fromLane="0" toLane="3" dir="t" state="M"/>
    <connection from=":juncMain_5" to="edgeW_I" fromLane="0" toLane="1" dir="s" state="M"/>
    <connection from=":juncMain_6" to="edgeN_I" fromLane="0" toLane="1" dir="s" state="M"/>
    <connection from=":juncMain_6" to="edgeN_I" fromLane="1" toLane="2" dir="s" state="M"/>
    <connection from=":juncMain_8" to="edgeW_I" fromLane="0" toLane="1" via=":juncMain_14_0" dir="l" state="m"/>
    <connection from=":juncMain_14" to="edgeW_I" fromLane="0" toLane="1" dir="l" state="M"/>
    <connection from=":juncMain_8" to="edgeW_I" fromLane="1" toLane="1" via=":juncMain_15_0" dir="l" state="m"/>
    <connection from=":juncMain_15" to="edgeW_I" fromLane="0" toLane="1" dir="l" state="M"/>
    <connection from=":juncMain_10" to="edgeS_I" fromLane="0" toLane="3" dir="t" state="M"/>
    <connection from=":juncMain_11" to="edgeE_I" fromLane="0" toLane="1" dir="s" state="M"/>
    <connection from=":juncN_0" to="edgeN_O" fromLane="0" toLane="3" dir="t" state="M"/>
    <connection from=":juncS_0" to="edgeS_O" fromLane="0" toLane="3" dir="t" state="M"/>
    <connection from=":juncW_0" to="edgeW_O" fromLane="0" toLane="1" dir="t" state="M"/>

    <connection from=":juncE_w0" to="edgeE_O" fromLane="0" toLane="0" dir="s" state="M"/>
    <connection from="edgeE_I" to=":juncE_w0" fromLane="0" toLane="0" dir="s" state="M"/>
    <connection from=":juncMain_c0" to=":juncMain_w0" fromLane="0" toLane="0" dir="s" state="M"/>
    <connection from=":juncMain_c1" to=":juncMain_w1" fromLane="0" toLane="0" dir="s" state="M"/>
    <connection from=":juncMain_c2" to=":juncMain_w2" fromLane="0" toLane="0" dir="s" state="M"/>
    <connection from=":juncMain_c3" to=":juncMain_w3" fromLane="0" toLane="0" dir="s" state="M"/>
    <connection from=":juncMain_w0" to=":juncMain_c3" fromLane="0" toLane="0" tl="juncMain" linkIndex="15" dir="s" state="M"/>
    <connection from=":juncMain_w0" to="edgeW_I" fromLane="0" toLane="0" dir="s" state="M"/>
    <connection from="edgeN_O" to=":juncMain_w0" fromLane="0" toLane="0" dir="s" state="M"/>
    <connection from=":juncMain_w1" to=":juncMain_c0" fromLane="0" toLane="0" tl="juncMain" linkIndex="12" dir="s" state="M"/>
    <connection from=":juncMain_w1" to="edgeN_I" fromLane="0" toLane="0" dir="s" state="M"/>
    <connection from="edgeE_O" to=":juncMain_w1" fromLane="0" toLane="0" dir="s" state="M"/>
    <connection from=":juncMain_w2" to=":juncMain_c1" fromLane="0" toLane="0" tl="juncMain" linkIndex="13" dir="s" state="M"/>
    <connection from=":juncMain_w2" to="edgeE_I" fromLane="0" toLane="0" dir="s" state="M"/>
    <connection from="edgeS_O" to=":juncMain_w2" fromLane="0" toLane="0" dir="s" state="M"/>
    <connection from=":juncMain_w3" to=":juncMain_c2" fromLane="0" toLane="0" tl="juncMain" linkIndex="14" dir="s" state="M"/>
    <connection from=":juncMain_w3" to="edgeS_I" fromLane="0" toLane="0" dir="s" state="M"/>
    <connection from="edgeW_O" to=":juncMain_w3" fromLane="0" toLane="0" dir="s" state="M"/>
    <connection from=":juncN_w0" to="edgeN_O" fromLane="0" toLane="0" dir="s" state="M"/>
    <connection from="edgeN_I" to=":juncN_w0" fromLane="0" toLane="0" dir="s" state="M"/>
    <connection from=":juncS_w0" to="edgeS_O" fromLane="0" toLane="0" dir="s" state="M"/>
    <connection from="edgeS_I" to=":juncS_w0" fromLane="0" toLane="0" dir="s" state="M"/>
    <connection from=":juncW_w0" to="edgeW_O" fromLane="0" toLane="0" dir="s" state="M"/>
    <connection from="edgeW_I" to=":juncW_w0" fromLane="0" toLane="0" dir="s" state="M"/>
</net>
