<routes>
   <personFlow id="pRegN" begin="0" end="3000" personsPerHour="807.753698">
        <walk edges="edgeN_O edgeS_I" speed="1.982413"/>
    </personFlow>
   <personFlow id="pRegS" begin="0" end="3000" personsPerHour="723.211753">
        <walk edges="edgeS_O edgeN_I" speed="1.510904"/>
    </personFlow>
   <personFlow id="pRegW" begin="0" end="3000" personsPerHour="702.272270">
        <walk edges="edgeW_O edgeE_I" speed="1.348009"/>
    </personFlow>
   <personFlow id="pRegE" begin="0" end="3000" personsPerHour="772.001043">
        <walk edges="edgeE_O edgeW_I" speed="0.957934"/>
    </personFlow>
   <personFlow id="pOppN" begin="0" end="3000" personsPerHour="181.647078" departPos="600.000000">
        <walk edges="edgeN_I edgeS_O" speed="1.237492"/>
    </personFlow>
   <personFlow id="pOppS" begin="0" end="3000" personsPerHour="404.428159" departPos="500.000000">
        <walk edges="edgeS_I edgeN_O" speed="1.719117"/>
    </personFlow>
   <personFlow id="pOppW" begin="0" end="3000" personsPerHour="900.308515" departPos="700.000000">
        <walk edges="edgeW_I edgeE_O" speed="2.163119"/>
    </personFlow>
   <personFlow id="pOppE" begin="0" end="3000" personsPerHour="1019.472929" departPos="400.000000">
        <walk edges="edgeE_I edgeW_O" speed="1.487061"/>
    </personFlow>

    <route id="edgeN_edgeN" edges="edgeN_O edgeN_I" />
    <route id="edgeN_edgeS" edges="edgeN_O edgeS_I" />
    <route id="edgeN_edgeW" edges="edgeN_O edgeW_I" />
    <route id="edgeN_edgeE" edges="edgeN_O edgeE_I" />
    <route id="edgeS_edgeN" edges="edgeS_O edgeN_I" />
    <route id="edgeS_edgeS" edges="edgeS_O edgeS_I" />
    <route id="edgeS_edgeW" edges="edgeS_O edgeW_I" />
    <route id="edgeS_edgeE" edges="edgeS_O edgeE_I" />
    <route id="edgeW_edgeN" edges="edgeW_O edgeN_I" />
    <route id="edgeW_edgeS" edges="edgeW_O edgeS_I" />
    <route id="edgeW_edgeW" edges="edgeW_O edgeW_I" />
    <route id="edgeW_edgeE" edges="edgeW_O edgeE_I" />
    <route id="edgeE_edgeN" edges="edgeE_O edgeN_I" />
    <route id="edgeE_edgeS" edges="edgeE_O edgeS_I" />
    <route id="edgeE_edgeW" edges="edgeE_O edgeW_I" />
    <route id="edgeE_edgeE" edges="edgeE_O edgeE_I" />
    
   <vType id="vehicleS_0" length="4.271000" accel="3.295000" decel="5.440000" sigma="0.5" minGap="2.398831" maxSpeed="127.197003" guiShape="passenger" />
   <vehicle id="straightS_0" type="vehicleS_0" route="edgeS_edgeN" depart="0" departLane="1" />

   <vType id="vehicleE_1" length="4.287000" accel="3.110000" decel="4.961000" sigma="0.5" minGap="2.398831" maxSpeed="127.197003" guiShape="passenger" />
   <vehicle id="leftE_1" type="vehicleE_1" route="edgeE_edgeS" depart="0" departLane="4" />

   <vType id="vehicleN_2" length="5.308000" accel="2.292000" decel="5.976000" sigma="0.5" minGap="2.398831" maxSpeed="127.197003" guiShape="passenger" />
   <vehicle id="straightN_2" type="vehicleN_2" route="edgeN_edgeS" depart="1" departLane="2" />

   <vType id="vehicleW_3" length="4.471000" accel="2.410000" decel="3.033000" sigma="0.5" minGap="2.398831" maxSpeed="127.197003" guiShape="passenger" />
   <vehicle id="uturnW_3" type="vehicleW_3" route="edgeW_edgeW" depart="1" departLane="4" />

   <vType id="vehicleN_4" length="4.388000" accel="2.393000" decel="3.598000" sigma="0.5" minGap="2.398831" maxSpeed="127.197003" guiShape="passenger" />
   <vehicle id="straightN_4" type="vehicleN_4" route="edgeN_edgeS" depart="5" departLane="1" />

   <vType id="vehicleN_5" length="5.062000" accel="3.247000" decel="5.469000" sigma="0.5" minGap="2.398831" maxSpeed="127.197003" guiShape="passenger" />
   <vehicle id="straightN_5" type="vehicleN_5" route="edgeN_edgeS" depart="6" departLane="1" />

   <vType id="vehicleW_6" length="4.165000" accel="2.804000" decel="6.738000" sigma="0.5" minGap="2.398831" maxSpeed="127.197003" guiShape="passenger" />
   <vehicle id="straightW_6" type="vehicleW_6" route="edgeW_edgeE" depart="6" departLane="3" />

   <vType id="vehicleN_7" length="5.236000" accel="2.360000" decel="6.042000" sigma="0.5" minGap="2.398831" maxSpeed="127.197003" guiShape="passenger" />
   <vehicle id="straightN_7" type="vehicleN_7" route="edgeN_edgeS" depart="7" departLane="2" />

   <vType id="vehicleW_8" length="4.880000" accel="3.270000" decel="3.514000" sigma="0.5" minGap="2.398831" maxSpeed="127.197003" guiShape="passenger" />
   <vehicle id="straightW_8" type="vehicleW_8" route="edgeW_edgeE" depart="7" departLane="2" />

   <vType id="vehicleW_9" length="4.869000" accel="2.644000" decel="5.058000" sigma="0.5" minGap="2.398831" maxSpeed="127.197003" guiShape="passenger" />
   <vehicle id="leftW_9" type="vehicleW_9" route="edgeW_edgeN" depart="8" departLane="4" />

   <vType id="vehicleS_10" length="5.213000" accel="3.466000" decel="3.266000" sigma="0.5" minGap="2.398831" maxSpeed="127.197003" guiShape="passenger" />
   <vehicle id="straightS_10" type="vehicleS_10" route="edgeS_edgeN" depart="9" departLane="1" />

   <vType id="vehicleN_11" length="5.639000" accel="3.010000" decel="6.662000" sigma="0.5" minGap="2.398831" maxSpeed="127.197003" guiShape="passenger" />
   <vehicle id="straightN_11" type="vehicleN_11" route="edgeN_edgeS" depart="10" departLane="1" />

   <vType id="vehicleW_12" length="5.205000" accel="3.339000" decel="4.043000" sigma="0.5" minGap="2.398831" maxSpeed="127.197003" guiShape="passenger" />
   <vehicle id="straightW_12" type="vehicleW_12" route="edgeW_edgeE" depart="10" departLane="2" />

   <vType id="vehicleS_13" length="5.416000" accel="2.693000" decel="5.283000" sigma="0.5" minGap="2.398831" maxSpeed="127.197003" guiShape="passenger" />
   <vehicle id="straightS_13" type="vehicleS_13" route="edgeS_edgeN" depart="12" departLane="1" />

   <vType id="vehicleW_14" length="4.830000" accel="3.353000" decel="4.833000" sigma="0.5" minGap="2.398831" maxSpeed="127.197003" guiShape="passenger" />
   <vehicle id="straightW_14" type="vehicleW_14" route="edgeW_edgeE" depart="12" departLane="1" />

   <vType id="vehicleS_15" length="5.620000" accel="3.392000" decel="3.625000" sigma="0.5" minGap="2.398831" maxSpeed="127.197003" guiShape="passenger" />
   <vehicle id="straightS_15" type="vehicleS_15" route="edgeS_edgeN" depart="13" departLane="1" />

   <vType id="vehicleN_16" length="3.998000" accel="3.328000" decel="5.810000" sigma="0.5" minGap="2.398831" maxSpeed="127.197003" guiShape="passenger" />
   <vehicle id="straightN_16" type="vehicleN_16" route="edgeN_edgeS" depart="14" departLane="1" />

   <vType id="vehicleE_17" length="4.949000" accel="3.608000" decel="6.487000" sigma="0.5" minGap="2.398831" maxSpeed="127.197003" guiShape="passenger" />
   <vehicle id="straightE_17" type="vehicleE_17" route="edgeE_edgeW" depart="14" departLane="3" />

   <vType id="vehicleE_18" length="3.913000" accel="3.044000" decel="5.074000" sigma="0.5" minGap="2.398831" maxSpeed="127.197003" guiShape="passenger" />
   <vehicle id="leftE_18" type="vehicleE_18" route="edgeE_edgeS" depart="16" departLane="4" />

   <vType id="vehicleN_19" length="4.281000" accel="3.527000" decel="6.199000" sigma="0.5" minGap="2.398831" maxSpeed="127.197003" guiShape="passenger" />
   <vehicle id="straightN_19" type="vehicleN_19" route="edgeN_edgeS" depart="17" departLane="1" />

   <vType id="vehicleW_20" length="4.830000" accel="3.277000" decel="6.294000" sigma="0.5" minGap="2.398831" maxSpeed="127.197003" guiShape="passenger" />
   <vehicle id="straightW_20" type="vehicleW_20" route="edgeW_edgeE" depart="17" departLane="3" />

   <vType id="vehicleW_21" length="4.639000" accel="2.865000" decel="4.570000" sigma="0.5" minGap="2.398831" maxSpeed="127.197003" guiShape="passenger" />
   <vehicle id="leftW_21" type="vehicleW_21" route="edgeW_edgeN" depart="18" departLane="4" />

   <vType id="vehicleS_22" length="4.476000" accel="3.467000" decel="3.664000" sigma="0.5" minGap="2.398831" maxSpeed="127.197003" guiShape="passenger" />
   <vehicle id="straightS_22" type="vehicleS_22" route="edgeS_edgeN" depart="19" departLane="1" />

   <vType id="vehicleE_23" length="4.694000" accel="3.485000" decel="2.944000" sigma="0.5" minGap="2.398831" maxSpeed="127.197003" guiShape="passenger" />
   <vehicle id="leftE_23" type="vehicleE_23" route="edgeE_edgeS" depart="19" departLane="4" />

   <vType id="vehicleN_24" length="5.355000" accel="3.615000" decel="6.476000" sigma="0.5" minGap="2.398831" maxSpeed="127.197003" guiShape="passenger" />
   <vehicle id="straightN_24" type="vehicleN_24" route="edgeN_edgeS" depart="20" departLane="1" />

   <vType id="vehicleS_25" length="4.254000" accel="2.834000" decel="2.875000" sigma="0.5" minGap="2.398831" maxSpeed="127.197003" guiShape="passenger" />
   <vehicle id="straightS_25" type="vehicleS_25" route="edgeS_edgeN" depart="20" departLane="2" />

   <vType id="vehicleW_26" length="5.516000" accel="3.362000" decel="3.815000" sigma="0.5" minGap="2.398831" maxSpeed="127.197003" guiShape="passenger" />
   <vehicle id="straightW_26" type="vehicleW_26" route="edgeW_edgeE" depart="20" departLane="3" />

   <vType id="vehicleE_27" length="5.590000" accel="3.079000" decel="4.882000" sigma="0.5" minGap="2.398831" maxSpeed="127.197003" guiShape="passenger" />
   <vehicle id="straightE_27" type="vehicleE_27" route="edgeE_edgeW" depart="21" departLane="3" />

   <vType id="vehicleS_28" length="5.503000" accel="3.013000" decel="2.868000" sigma="0.5" minGap="2.398831" maxSpeed="127.197003" guiShape="passenger" />
   <vehicle id="straightS_28" type="vehicleS_28" route="edgeS_edgeN" depart="22" departLane="1" />

   <vType id="vehicleE_29" length="5.401000" accel="2.838000" decel="6.540000" sigma="0.5" minGap="2.398831" maxSpeed="127.197003" guiShape="passenger" />
   <vehicle id="leftE_29" type="vehicleE_29" route="edgeE_edgeS" depart="22" departLane="4" />

   <vType id="vehicleS_30" length="5.039000" accel="3.060000" decel="3.945000" sigma="0.5" minGap="2.398831" maxSpeed="127.197003" guiShape="passenger" />
   <vehicle id="straightS_30" type="vehicleS_30" route="edgeS_edgeN" depart="23" departLane="2" />

   <vType id="vehicleW_31" length="4.298000" accel="2.827000" decel="5.419000" sigma="0.5" minGap="2.398831" maxSpeed="127.197003" guiShape="passenger" />
   <vehicle id="straightW_31" type="vehicleW_31" route="edgeW_edgeE" depart="23" departLane="2" />

   <vType id="vehicleW_32" length="4.872000" accel="2.420000" decel="4.863000" sigma="0.5" minGap="2.398831" maxSpeed="127.197003" guiShape="passenger" />
   <vehicle id="straightW_32" type="vehicleW_32" route="edgeW_edgeE" depart="24" departLane="3" />

   <vType id="vehicleN_33" length="5.121000" accel="3.124000" decel="6.729000" sigma="0.5" minGap="2.398831" maxSpeed="127.197003" guiShape="passenger" />
   <vehicle id="straightN_33" type="vehicleN_33" route="edgeN_edgeS" depart="26" departLane="1" />

   <vType id="vehicleN_34" length="4.344000" accel="3.506000" decel="5.713000" sigma="0.5" minGap="2.398831" maxSpeed="127.197003" guiShape="passenger" />
   <vehicle id="straightN_34" type="vehicleN_34" route="edgeN_edgeS" depart="27" departLane="1" />

   <vType id="vehicleN_35" length="4.343000" accel="2.954000" decel="6.389000" sigma="0.5" minGap="2.398831" maxSpeed="127.197003" guiShape="passenger" />
   <vehicle id="straightN_35" type="vehicleN_35" route="edgeN_edgeS" depart="28" departLane="1" />

   <vType id="vehicleS_36" length="4.365000" accel="2.288000" decel="5.832000" sigma="0.5" minGap="2.398831" maxSpeed="127.197003" guiShape="passenger" />
   <vehicle id="straightS_36" type="vehicleS_36" route="edgeS_edgeN" depart="28" departLane="2" />

   <vType id="vehicleW_37" length="5.125000" accel="3.054000" decel="3.096000" sigma="0.5" minGap="2.398831" maxSpeed="127.197003" guiShape="passenger" />
   <vehicle id="straightW_37" type="vehicleW_37" route="edgeW_edgeE" depart="28" departLane="3" />

   <vType id="vehicleE_38" length="4.421000" accel="3.518000" decel="5.936000" sigma="0.5" minGap="2.398831" maxSpeed="127.197003" guiShape="passenger" />
   <vehicle id="leftE_38" type="vehicleE_38" route="edgeE_edgeS" depart="29" departLane="4" />

   <vType id="vehicleS_39" length="4.058000" accel="3.355000" decel="6.301000" sigma="0.5" minGap="2.398831" maxSpeed="127.197003" guiShape="passenger" />
   <vehicle id="straightS_39" type="vehicleS_39" route="edgeS_edgeN" depart="30" departLane="2" />

   <vType id="vehicleS_40" length="5.291000" accel="2.526000" decel="4.343000" sigma="0.5" minGap="2.398831" maxSpeed="127.197003" guiShape="passenger" />
   <vehicle id="straightS_40" type="vehicleS_40" route="edgeS_edgeN" depart="31" departLane="1" />

   <vType id="vehicleN_41" length="4.067000" accel="3.482000" decel="6.195000" sigma="0.5" minGap="2.398831" maxSpeed="127.197003" guiShape="passenger" />
   <vehicle id="straightN_41" type="vehicleN_41" route="edgeN_edgeS" depart="33" departLane="1" />

   <vType id="vehicleS_42" length="4.495000" accel="3.411000" decel="6.248000" sigma="0.5" minGap="2.398831" maxSpeed="127.197003" guiShape="passenger" />
   <vehicle id="straightS_42" type="vehicleS_42" route="edgeS_edgeN" depart="33" departLane="1" />

   <vType id="vehicleW_43" length="4.457000" accel="3.471000" decel="6.645000" sigma="0.5" minGap="2.398831" maxSpeed="127.197003" guiShape="passenger" />
   <vehicle id="leftW_43" type="vehicleW_43" route="edgeW_edgeN" depart="33" departLane="4" />

   <vType id="vehicleN_44" length="4.338000" accel="3.081000" decel="6.714000" sigma="0.5" minGap="2.398831" maxSpeed="127.197003" guiShape="passenger" />
   <vehicle id="straightN_44" type="vehicleN_44" route="edgeN_edgeS" depart="35" departLane="1" />

   <vType id="vehicleS_45" length="5.165000" accel="2.714000" decel="5.148000" sigma="0.5" minGap="2.398831" maxSpeed="127.197003" guiShape="passenger" />
   <vehicle id="straightS_45" type="vehicleS_45" route="edgeS_edgeN" depart="35" departLane="1" />

   <vType id="vehicleN_46" length="3.879000" accel="3.555000" decel="4.866000" sigma="0.5" minGap="2.398831" maxSpeed="127.197003" guiShape="passenger" />
   <vehicle id="straightN_46" type="vehicleN_46" route="edgeN_edgeS" depart="36" departLane="1" />

   <vType id="vehicleW_47" length="4.460000" accel="2.714000" decel="6.151000" sigma="0.5" minGap="2.398831" maxSpeed="127.197003" guiShape="passenger" />
   <vehicle id="straightW_47" type="vehicleW_47" route="edgeW_edgeE" depart="36" departLane="3" />

   <vType id="vehicleS_48" length="4.547000" accel="3.311000" decel="3.354000" sigma="0.5" minGap="2.398831" maxSpeed="127.197003" guiShape="passenger" />
   <vehicle id="straightS_48" type="vehicleS_48" route="edgeS_edgeN" depart="38" departLane="2" />

   <vType id="vehicleS_49" length="4.949000" accel="2.726000" decel="4.465000" sigma="0.5" minGap="2.398831" maxSpeed="127.197003" guiShape="passenger" />
   <vehicle id="straightS_49" type="vehicleS_49" route="edgeS_edgeN" depart="39" departLane="1" />

   <vType id="vehicleW_50" length="4.291000" accel="2.710000" decel="5.979000" sigma="0.5" minGap="2.398831" maxSpeed="127.197003" guiShape="passenger" />
   <vehicle id="uturnW_50" type="vehicleW_50" route="edgeW_edgeW" depart="41" departLane="4" />

   <vType id="vehicleE_51" length="5.617000" accel="3.123000" decel="5.821000" sigma="0.5" minGap="2.398831" maxSpeed="127.197003" guiShape="passenger" />
   <vehicle id="leftE_51" type="vehicleE_51" route="edgeE_edgeS" depart="41" departLane="4" />

   <vType id="vehicleW_52" length="4.751000" accel="2.618000" decel="5.354000" sigma="0.5" minGap="2.398831" maxSpeed="127.197003" guiShape="passenger" />
   <vehicle id="straightW_52" type="vehicleW_52" route="edgeW_edgeE" depart="42" departLane="1" />

   <vType id="vehicleE_53" length="5.107000" accel="2.921000" decel="4.945000" sigma="0.5" minGap="2.398831" maxSpeed="127.197003" guiShape="passenger" />
   <vehicle id="straightE_53" type="vehicleE_53" route="edgeE_edgeW" depart="43" departLane="1" />

   <vType id="vehicleE_54" length="5.004000" accel="3.335000" decel="4.795000" sigma="0.5" minGap="2.398831" maxSpeed="127.197003" guiShape="passenger" />
   <vehicle id="leftE_54" type="vehicleE_54" route="edgeE_edgeS" depart="47" departLane="4" />

   <vType id="vehicleN_55" length="4.381000" accel="2.656000" decel="3.958000" sigma="0.5" minGap="2.398831" maxSpeed="127.197003" guiShape="passenger" />
   <vehicle id="straightN_55" type="vehicleN_55" route="edgeN_edgeS" depart="48" departLane="1" />

   <vType id="vehicleS_56" length="5.104000" accel="3.254000" decel="2.898000" sigma="0.5" minGap="2.398831" maxSpeed="127.197003" guiShape="passenger" />
   <vehicle id="straightS_56" type="vehicleS_56" route="edgeS_edgeN" depart="48" departLane="2" />

   <vType id="vehicleN_57" length="4.565000" accel="3.341000" decel="6.558000" sigma="0.5" minGap="2.398831" maxSpeed="127.197003" guiShape="passenger" />
   <vehicle id="straightN_57" type="vehicleN_57" route="edgeN_edgeS" depart="49" departLane="1" />

   <vType id="vehicleN_58" length="5.209000" accel="3.456000" decel="6.589000" sigma="0.5" minGap="2.398831" maxSpeed="127.197003" guiShape="passenger" />
   <vehicle id="straightN_58" type="vehicleN_58" route="edgeN_edgeS" depart="50" departLane="2" />

   <vType id="vehicleW_59" length="4.564000" accel="3.202000" decel="5.944000" sigma="0.5" minGap="2.398831" maxSpeed="127.197003" guiShape="passenger" />
   <vehicle id="straightW_59" type="vehicleW_59" route="edgeW_edgeE" depart="51" departLane="3" />

   <vType id="vehicleE_60" length="4.102000" accel="3.138000" decel="2.743000" sigma="0.5" minGap="2.398831" maxSpeed="127.197003" guiShape="passenger" />
   <vehicle id="straightE_60" type="vehicleE_60" route="edgeE_edgeW" depart="51" departLane="2" />

   <vType id="vehicleW_61" length="5.410000" accel="2.533000" decel="3.711000" sigma="0.5" minGap="2.398831" maxSpeed="127.197003" guiShape="passenger" />
   <vehicle id="straightW_61" type="vehicleW_61" route="edgeW_edgeE" depart="52" departLane="2" />

   <vType id="vehicleE_62" length="5.223000" accel="2.804000" decel="5.753000" sigma="0.5" minGap="2.398831" maxSpeed="127.197003" guiShape="passenger" />
   <vehicle id="straightE_62" type="vehicleE_62" route="edgeE_edgeW" depart="52" departLane="2" />

   <vType id="vehicleN_63" length="3.910000" accel="3.024000" decel="6.782000" sigma="0.5" minGap="2.398831" maxSpeed="127.197003" guiShape="passenger" />
   <vehicle id="straightN_63" type="vehicleN_63" route="edgeN_edgeS" depart="53" departLane="2" />

   <vType id="vehicleS_64" length="5.570000" accel="2.338000" decel="2.760000" sigma="0.5" minGap="2.398831" maxSpeed="127.197003" guiShape="passenger" />
   <vehicle id="straightS_64" type="vehicleS_64" route="edgeS_edgeN" depart="53" departLane="1" />

   <vType id="vehicleW_65" length="4.145000" accel="2.456000" decel="5.410000" sigma="0.5" minGap="2.398831" maxSpeed="127.197003" guiShape="passenger" />
   <vehicle id="leftW_65" type="vehicleW_65" route="edgeW_edgeN" depart="53" departLane="4" />

   <vType id="vehicleN_66" length="4.948000" accel="3.607000" decel="5.613000" sigma="0.5" minGap="2.398831" maxSpeed="127.197003" guiShape="passenger" />
   <vehicle id="straightN_66" type="vehicleN_66" route="edgeN_edgeS" depart="54" departLane="1" />

   <vType id="vehicleW_67" length="4.428000" accel="3.214000" decel="6.608000" sigma="0.5" minGap="2.398831" maxSpeed="127.197003" guiShape="passenger" />
   <vehicle id="leftW_67" type="vehicleW_67" route="edgeW_edgeN" depart="54" departLane="4" />

   <vType id="vehicleN_68" length="5.346000" accel="2.617000" decel="5.525000" sigma="0.5" minGap="2.398831" maxSpeed="127.197003" guiShape="passenger" />
   <vehicle id="straightN_68" type="vehicleN_68" route="edgeN_edgeS" depart="55" departLane="2" />

   <vType id="vehicleE_69" length="5.261000" accel="2.760000" decel="4.409000" sigma="0.5" minGap="2.398831" maxSpeed="127.197003" guiShape="passenger" />
   <vehicle id="uturnE_69" type="vehicleE_69" route="edgeE_edgeE" depart="55" departLane="4" />

   <vType id="vehicleS_70" length="5.001000" accel="3.422000" decel="5.567000" sigma="0.5" minGap="2.398831" maxSpeed="127.197003" guiShape="passenger" />
   <vehicle id="straightS_70" type="vehicleS_70" route="edgeS_edgeN" depart="57" departLane="2" />

   <vType id="vehicleW_71" length="5.027000" accel="3.129000" decel="6.448000" sigma="0.5" minGap="2.398831" maxSpeed="127.197003" guiShape="passenger" />
   <vehicle id="straightW_71" type="vehicleW_71" route="edgeW_edgeE" depart="57" departLane="2" />

   <vType id="vehicleE_72" length="4.369000" accel="2.902000" decel="5.746000" sigma="0.5" minGap="2.398831" maxSpeed="127.197003" guiShape="passenger" />
   <vehicle id="uturnE_72" type="vehicleE_72" route="edgeE_edgeE" depart="58" departLane="4" />

   <vType id="vehicleE_73" length="4.931000" accel="3.492000" decel="4.938000" sigma="0.5" minGap="2.398831" maxSpeed="127.197003" guiShape="passenger" />
   <vehicle id="straightE_73" type="vehicleE_73" route="edgeE_edgeW" depart="60" departLane="3" />

   <vType id="vehicleS_74" length="4.740000" accel="3.325000" decel="5.498000" sigma="0.5" minGap="2.398831" maxSpeed="127.197003" guiShape="passenger" />
   <vehicle id="straightS_74" type="vehicleS_74" route="edgeS_edgeN" depart="61" departLane="2" />

   <vType id="vehicleE_75" length="4.591000" accel="2.617000" decel="5.387000" sigma="0.5" minGap="2.398831" maxSpeed="127.197003" guiShape="passenger" />
   <vehicle id="straightE_75" type="vehicleE_75" route="edgeE_edgeW" depart="61" departLane="2" />

   <vType id="vehicleW_76" length="4.089000" accel="2.548000" decel="3.128000" sigma="0.5" minGap="2.398831" maxSpeed="127.197003" guiShape="passenger" />
   <vehicle id="leftW_76" type="vehicleW_76" route="edgeW_edgeN" depart="63" departLane="4" />

   <vType id="vehicleE_77" length="4.365000" accel="3.093000" decel="5.787000" sigma="0.5" minGap="2.398831" maxSpeed="127.197003" guiShape="passenger" />
   <vehicle id="straightE_77" type="vehicleE_77" route="edgeE_edgeW" depart="63" departLane="3" />

   <vType id="vehicleS_78" length="4.278000" accel="2.529000" decel="2.690000" sigma="0.5" minGap="2.398831" maxSpeed="127.197003" guiShape="passenger" />
   <vehicle id="straightS_78" type="vehicleS_78" route="edgeS_edgeN" depart="64" departLane="1" />

   <vType id="vehicleW_79" length="4.855000" accel="3.241000" decel="3.156000" sigma="0.5" minGap="2.398831" maxSpeed="127.197003" guiShape="passenger" />
   <vehicle id="uturnW_79" type="vehicleW_79" route="edgeW_edgeW" depart="64" departLane="4" />

   <vType id="vehicleS_80" length="5.541000" accel="2.939000" decel="6.044000" sigma="0.5" minGap="2.398831" maxSpeed="127.197003" guiShape="passenger" />
   <vehicle id="straightS_80" type="vehicleS_80" route="edgeS_edgeN" depart="66" departLane="2" />

   <vType id="vehicleS_81" length="5.556000" accel="2.400000" decel="3.662000" sigma="0.5" minGap="2.398831" maxSpeed="127.197003" guiShape="passenger" />
   <vehicle id="straightS_81" type="vehicleS_81" route="edgeS_edgeN" depart="67" departLane="2" />

   <vType id="vehicleN_82" length="4.673000" accel="2.891000" decel="6.202000" sigma="0.5" minGap="2.398831" maxSpeed="127.197003" guiShape="passenger" />
   <vehicle id="straightN_82" type="vehicleN_82" route="edgeN_edgeS" depart="68" departLane="2" />

   <vType id="vehicleW_83" length="5.045000" accel="2.499000" decel="3.353000" sigma="0.5" minGap="2.398831" maxSpeed="127.197003" guiShape="passenger" />
   <vehicle id="leftW_83" type="vehicleW_83" route="edgeW_edgeN" depart="69" departLane="4" />

   <vType id="vehicleE_84" length="5.096000" accel="2.929000" decel="2.767000" sigma="0.5" minGap="2.398831" maxSpeed="127.197003" guiShape="passenger" />
   <vehicle id="straightE_84" type="vehicleE_84" route="edgeE_edgeW" depart="69" departLane="2" />

   <vType id="vehicleW_85" length="4.420000" accel="3.312000" decel="4.994000" sigma="0.5" minGap="2.398831" maxSpeed="127.197003" guiShape="passenger" />
   <vehicle id="leftW_85" type="vehicleW_85" route="edgeW_edgeN" depart="73" departLane="4" />

   <vType id="vehicleW_86" length="5.069000" accel="3.466000" decel="5.068000" sigma="0.5" minGap="2.398831" maxSpeed="127.197003" guiShape="passenger" />
   <vehicle id="leftW_86" type="vehicleW_86" route="edgeW_edgeN" depart="76" departLane="4" />

   <vType id="vehicleW_87" length="4.708000" accel="3.178000" decel="6.434000" sigma="0.5" minGap="2.398831" maxSpeed="127.197003" guiShape="passenger" />
   <vehicle id="straightW_87" type="vehicleW_87" route="edgeW_edgeE" depart="77" departLane="1" />

   <vType id="vehicleW_88" length="4.604000" accel="2.964000" decel="5.382000" sigma="0.5" minGap="2.398831" maxSpeed="127.197003" guiShape="passenger" />
   <vehicle id="leftW_88" type="vehicleW_88" route="edgeW_edgeN" depart="79" departLane="4" />

   <vType id="vehicleE_89" length="5.215000" accel="3.142000" decel="5.786000" sigma="0.5" minGap="2.398831" maxSpeed="127.197003" guiShape="passenger" />
   <vehicle id="straightE_89" type="vehicleE_89" route="edgeE_edgeW" depart="82" departLane="1" />

   <vType id="vehicleN_90" length="4.385000" accel="3.493000" decel="4.643000" sigma="0.5" minGap="2.398831" maxSpeed="127.197003" guiShape="passenger" />
   <vehicle id="straightN_90" type="vehicleN_90" route="edgeN_edgeS" depart="83" departLane="1" />

   <vType id="vehicleE_91" length="4.851000" accel="3.042000" decel="3.018000" sigma="0.5" minGap="2.398831" maxSpeed="127.197003" guiShape="passenger" />
   <vehicle id="leftE_91" type="vehicleE_91" route="edgeE_edgeS" depart="83" departLane="4" />

   <vType id="vehicleS_92" length="4.758000" accel="3.268000" decel="4.744000" sigma="0.5" minGap="2.398831" maxSpeed="127.197003" guiShape="passenger" />
   <vehicle id="straightS_92" type="vehicleS_92" route="edgeS_edgeN" depart="84" departLane="2" />

   <vType id="vehicleW_93" length="4.937000" accel="3.309000" decel="3.198000" sigma="0.5" minGap="2.398831" maxSpeed="127.197003" guiShape="passenger" />
   <vehicle id="leftW_93" type="vehicleW_93" route="edgeW_edgeN" depart="85" departLane="4" />

   <vType id="vehicleW_94" length="4.487000" accel="3.041000" decel="4.887000" sigma="0.5" minGap="2.398831" maxSpeed="127.197003" guiShape="passenger" />
   <vehicle id="straightW_94" type="vehicleW_94" route="edgeW_edgeE" depart="88" departLane="2" />

   <vType id="vehicleW_95" length="5.391000" accel="2.847000" decel="3.952000" sigma="0.5" minGap="2.398831" maxSpeed="127.197003" guiShape="passenger" />
   <vehicle id="straightW_95" type="vehicleW_95" route="edgeW_edgeE" depart="89" departLane="2" />

   <vType id="vehicleW_96" length="4.920000" accel="3.478000" decel="6.260000" sigma="0.5" minGap="2.398831" maxSpeed="127.197003" guiShape="passenger" />
   <vehicle id="straightW_96" type="vehicleW_96" route="edgeW_edgeE" depart="91" departLane="2" />

   <vType id="vehicleE_97" length="3.903000" accel="2.481000" decel="6.246000" sigma="0.5" minGap="2.398831" maxSpeed="127.197003" guiShape="passenger" />
   <vehicle id="straightE_97" type="vehicleE_97" route="edgeE_edgeW" depart="91" departLane="1" />

   <vType id="vehicleN_98" length="4.345000" accel="3.139000" decel="4.281000" sigma="0.5" minGap="2.398831" maxSpeed="127.197003" guiShape="passenger" />
   <vehicle id="straightN_98" type="vehicleN_98" route="edgeN_edgeS" depart="92" departLane="1" />

   <vType id="vehicleS_99" length="4.993000" accel="3.549000" decel="6.771000" sigma="0.5" minGap="2.398831" maxSpeed="127.197003" guiShape="passenger" />
   <vehicle id="straightS_99" type="vehicleS_99" route="edgeS_edgeN" depart="94" departLane="1" />

   <vType id="vehicleE_100" length="5.420000" accel="2.893000" decel="5.512000" sigma="0.5" minGap="2.398831" maxSpeed="127.197003" guiShape="passenger" />
   <vehicle id="straightE_100" type="vehicleE_100" route="edgeE_edgeW" depart="94" departLane="1" />

   <vType id="vehicleN_101" length="4.395000" accel="2.798000" decel="3.236000" sigma="0.5" minGap="2.398831" maxSpeed="127.197003" guiShape="passenger" />
   <vehicle id="straightN_101" type="vehicleN_101" route="edgeN_edgeS" depart="95" departLane="2" />

   <vType id="vehicleE_102" length="5.417000" accel="3.135000" decel="3.631000" sigma="0.5" minGap="2.398831" maxSpeed="127.197003" guiShape="passenger" />
   <vehicle id="leftE_102" type="vehicleE_102" route="edgeE_edgeS" depart="95" departLane="4" />

   <vType id="vehicleN_103" length="4.689000" accel="3.199000" decel="6.362000" sigma="0.5" minGap="2.398831" maxSpeed="127.197003" guiShape="passenger" />
   <vehicle id="straightN_103" type="vehicleN_103" route="edgeN_edgeS" depart="96" departLane="2" />

   <vType id="vehicleE_104" length="4.487000" accel="3.090000" decel="5.283000" sigma="0.5" minGap="2.398831" maxSpeed="127.197003" guiShape="passenger" />
   <vehicle id="straightE_104" type="vehicleE_104" route="edgeE_edgeW" depart="96" departLane="2" />

   <vType id="vehicleS_105" length="4.511000" accel="2.690000" decel="5.534000" sigma="0.5" minGap="2.398831" maxSpeed="127.197003" guiShape="passenger" />
   <vehicle id="straightS_105" type="vehicleS_105" route="edgeS_edgeN" depart="98" departLane="1" />

   <vType id="vehicleN_106" length="5.089000" accel="3.306000" decel="2.835000" sigma="0.5" minGap="2.398831" maxSpeed="127.197003" guiShape="passenger" />
   <vehicle id="straightN_106" type="vehicleN_106" route="edgeN_edgeS" depart="99" departLane="2" />

   <vType id="vehicleN_107" length="4.263000" accel="2.544000" decel="3.672000" sigma="0.5" minGap="2.398831" maxSpeed="127.197003" guiShape="passenger" />
   <vehicle id="straightN_107" type="vehicleN_107" route="edgeN_edgeS" depart="100" departLane="1" />

   <vType id="vehicleN_108" length="5.199000" accel="2.524000" decel="3.180000" sigma="0.5" minGap="2.398831" maxSpeed="127.197003" guiShape="passenger" />
   <vehicle id="straightN_108" type="vehicleN_108" route="edgeN_edgeS" depart="102" departLane="2" />
