<?xml version="1.0" encoding="UTF-8"?>

<!-- generated on 2021-10-23 04:06:18 by Eclipse SUMO netconvert Version 1.10.0
<configuration xmlns:xsi="http://www.w3.org/2001/XMLSchema-instance" xsi:noNamespaceSchemaLocation="http://sumo.dlr.de/xsd/netconvertConfiguration.xsd">

    <input>
        <node-files value="data8/cross.nod.xml"/>
        <edge-files value="data8/cross.edg.xml"/>
        <connection-files value="data8/cross.con.xml"/>
    </input>

    <output>
        <output-file value="data8/cross.net.xml"/>
    </output>

    <junctions>
        <no-turnarounds.except-turnlane value="true"/>
    </junctions>

    <report>
        <aggregate-warnings value="5"/>
    </report>

</configuration>
-->

<net version="1.9" junctionCornerDetail="5" limitTurnSpeed="5.50" xmlns:xsi="http://www.w3.org/2001/XMLSchema-instance" xsi:noNamespaceSchemaLocation="http://sumo.dlr.de/xsd/net_file.xsd">

    <location netOffset="700.00,500.00" convBoundary="0.00,0.00,1100.00,1100.00" origBoundary="-700.00,-500.00,400.00,600.00" projParameter="!"/>

    <edge id=":juncE_0" function="internal">
        <lane id=":juncE_0_0" index="0" disallow="pedestrian" speed="3.65" length="4.67" shape="1100.00,498.40 1101.20,499.20 1101.60,500.00 1101.20,500.80 1100.00,501.60"/>
    </edge>
    <edge id=":juncE_w0" function="walkingarea">
        <lane id=":juncE_w0_0" index="0" allow="pedestrian" speed="1.00" length="28.80" width="3.20" shape="1100.00,512.80 1100.00,516.00 1100.00,484.00 1100.00,487.20"/>
    </edge>
    <edge id=":juncMain_0" function="internal">
        <lane id=":juncMain_0_0" index="0" disallow="pedestrian" speed="17.04" length="35.00" shape="695.20,517.50 695.20,482.50"/>
        <lane id=":juncMain_0_1" index="1" disallow="pedestrian" speed="17.04" length="35.00" shape="698.40,517.50 698.40,482.50"/>
    </edge>
    <edge id=":juncMain_2" function="internal">
        <lane id=":juncMain_2_0" index="0" disallow="pedestrian" speed="19.00" length="22.20" shape="711.10,511.20 688.90,511.20"/>
        <lane id=":juncMain_2_1" index="1" disallow="pedestrian" speed="19.00" length="22.20" shape="711.10,508.00 688.90,508.00"/>
        <lane id=":juncMain_2_2" index="2" disallow="pedestrian" speed="19.00" length="22.20" shape="711.10,504.80 688.90,504.80"/>
    </edge>
    <edge id=":juncMain_5" function="internal">
        <lane id=":juncMain_5_0" index="0" disallow="pedestrian" speed="10.63" length="11.03" shape="711.10,501.60 705.54,500.41 701.58,496.83"/>
    </edge>
    <edge id=":juncMain_6" function="internal">
        <lane id=":juncMain_6_0" index="0" disallow="pedestrian" speed="3.65" length="4.67" shape="711.10,501.60 709.90,500.80 709.50,500.00 709.90,499.20 711.10,498.40"/>
    </edge>
    <edge id=":juncMain_14" function="internal">
        <lane id=":juncMain_14_0" index="0" disallow="pedestrian" speed="10.63" length="14.82" shape="701.58,496.83 699.19,490.86 698.40,482.50"/>
    </edge>
    <edge id=":juncMain_7" function="internal">
        <lane id=":juncMain_7_0" index="0" disallow="pedestrian" speed="17.04" length="35.00" shape="704.80,482.50 704.80,517.50"/>
        <lane id=":juncMain_7_1" index="1" disallow="pedestrian" speed="17.04" length="35.00" shape="701.60,482.50 701.60,517.50"/>
    </edge>
    <edge id=":juncMain_9" function="internal">
        <lane id=":juncMain_9_0" index="0" disallow="pedestrian" speed="19.00" length="22.20" shape="688.90,488.80 711.10,488.80"/>
        <lane id=":juncMain_9_1" index="1" disallow="pedestrian" speed="19.00" length="22.20" shape="688.90,492.00 711.10,492.00"/>
        <lane id=":juncMain_9_2" index="2" disallow="pedestrian" speed="19.00" length="22.20" shape="688.90,495.20 711.10,495.20"/>
    </edge>
    <edge id=":juncMain_12" function="internal">
        <lane id=":juncMain_12_0" index="0" disallow="pedestrian" speed="10.63" length="11.03" shape="688.90,498.40 694.46,499.59 698.42,503.17"/>
    </edge>
    <edge id=":juncMain_13" function="internal">
        <lane id=":juncMain_13_0" index="0" disallow="pedestrian" speed="3.65" length="4.67" shape="688.90,498.40 690.10,499.20 690.50,500.00 690.10,500.80 688.90,501.60"/>
    </edge>
    <edge id=":juncMain_15" function="internal">
        <lane id=":juncMain_15_0" index="0" disallow="pedestrian" speed="10.63" length="14.82" shape="698.42,503.17 700.81,509.14 701.60,517.50"/>
    </edge>
    <edge id=":juncMain_c0" function="crossing" crossingEdges="edgeN_I edgeN_O">
        <lane id=":juncMain_c0_0" index="0" allow="pedestrian" speed="1.00" length="12.80" width="4.50" shape="706.40,515.25 693.60,515.25"/>
    </edge>
    <edge id=":juncMain_c1" function="crossing" crossingEdges="edgeE_I edgeE_O">
        <lane id=":juncMain_c1_0" index="0" allow="pedestrian" speed="1.00" length="25.60" width="4.50" shape="708.85,487.20 708.85,512.80"/>
    </edge>
    <edge id=":juncMain_c2" function="crossing" crossingEdges="edgeS_I edgeS_O">
        <lane id=":juncMain_c2_0" index="0" allow="pedestrian" speed="1.00" length="12.80" width="4.50" shape="693.60,484.75 706.40,484.75"/>
    </edge>
    <edge id=":juncMain_c3" function="crossing" crossingEdges="edgeW_I edgeW_O">
        <lane id=":juncMain_c3_0" index="0" allow="pedestrian" speed="1.00" length="25.60" width="4.50" shape="691.15,512.80 691.15,487.20"/>
    </edge>
    <edge id=":juncMain_w0" function="walkingarea">
        <lane id=":juncMain_w0_0" index="0" allow="pedestrian" speed="1.00" length="3.82" width="4.50" shape="688.90,512.80 688.90,516.00 690.40,517.50 693.60,517.50 693.47,516.06 693.08,514.89 692.43,513.97 691.51,513.32 690.34,512.93"/>
    </edge>
    <edge id=":juncMain_w1" function="walkingarea">
        <lane id=":juncMain_w1_0" index="0" allow="pedestrian" speed="1.00" length="3.82" width="4.50" shape="706.40,517.50 709.60,517.50 711.10,516.00 711.10,512.80 709.66,512.93 708.49,513.32 707.58,513.97 706.92,514.89 706.53,516.06"/>
    </edge>
    <edge id=":juncMain_w2" function="walkingarea">
        <lane id=":juncMain_w2_0" index="0" allow="pedestrian" speed="1.00" length="3.82" width="4.50" shape="711.10,487.20 711.10,484.00 709.60,482.50 706.40,482.50 706.53,483.94 706.92,485.11 707.57,486.03 708.49,486.68 709.66,487.07"/>
    </edge>
    <edge id=":juncMain_w3" function="walkingarea">
        <lane id=":juncMain_w3_0" index="0" allow="pedestrian" speed="1.00" length="3.82" width="4.50" shape="693.60,482.50 690.40,482.50 688.90,484.00 688.90,487.20 690.34,487.07 691.51,486.68 692.42,486.02 693.08,485.11 693.47,483.94"/>
    </edge>
    <edge id=":juncN_0" function="internal">
        <lane id=":juncN_0_0" index="0" disallow="pedestrian" speed="3.65" length="4.67" shape="701.60,1100.00 700.80,1101.20 700.00,1101.60 699.20,1101.20 698.40,1100.00"/>
    </edge>
    <edge id=":juncN_w0" function="walkingarea">
        <lane id=":juncN_w0_0" index="0" allow="pedestrian" speed="1.00" length="16.00" width="3.20" shape="693.60,1100.00 690.40,1100.00 709.60,1100.00 706.40,1100.00"/>
    </edge>
    <edge id=":juncS_0" function="internal">
        <lane id=":juncS_0_0" index="0" disallow="pedestrian" speed="3.65" length="4.67" shape="698.40,0.00 699.20,-1.20 700.00,-1.60 700.80,-1.20 701.60,0.00"/>
    </edge>
    <edge id=":juncS_w0" function="walkingarea">
        <lane id=":juncS_w0_0" index="0" allow="pedestrian" speed="1.00" length="16.00" width="3.20" shape="706.40,0.00 709.60,0.00 690.40,0.00 693.60,0.00"/>
    </edge>
    <edge id=":juncW_0" function="internal">
        <lane id=":juncW_0_0" index="0" disallow="pedestrian" speed="3.65" length="4.67" shape="0.00,501.60 -1.20,500.80 -1.60,500.00 -1.20,499.20 0.00,498.40"/>
    </edge>
    <edge id=":juncW_w0" function="walkingarea">
        <lane id=":juncW_w0_0" index="0" allow="pedestrian" speed="1.00" length="28.80" width="3.20" shape="0.00,487.20 0.00,484.00 0.00,516.00 0.00,512.80"/>
    </edge>

    <edge id="edgeE_I" from="juncMain" to="juncE" priority="46">
        <lane id="edgeE_I_0" index="0" allow="pedestrian" speed="19.03" length="388.90" shape="711.10,485.60 1100.00,485.60"/>
        <lane id="edgeE_I_1" index="1" disallow="pedestrian" speed="19.03" length="388.90" shape="711.10,488.80 1100.00,488.80"/>
        <lane id="edgeE_I_2" index="2" disallow="pedestrian" speed="19.03" length="388.90" shape="711.10,492.00 1100.00,492.00"/>
        <lane id="edgeE_I_3" index="3" disallow="pedestrian" speed="19.03" length="388.90" shape="711.10,495.20 1100.00,495.20"/>
        <lane id="edgeE_I_4" index="4" disallow="pedestrian" speed="19.03" length="388.90" shape="711.10,498.40 1100.00,498.40"/>
    </edge>
    <edge id="edgeE_O" from="juncE" to="juncMain" priority="78">
        <lane id="edgeE_O_0" index="0" allow="pedestrian" speed="18.97" length="388.90" shape="1100.00,514.40 711.10,514.40"/>
        <lane id="edgeE_O_1" index="1" disallow="pedestrian" speed="18.97" length="388.90" shape="1100.00,511.20 711.10,511.20"/>
        <lane id="edgeE_O_2" index="2" disallow="pedestrian" speed="18.97" length="388.90" shape="1100.00,508.00 711.10,508.00"/>
        <lane id="edgeE_O_3" index="3" disallow="pedestrian" speed="18.97" length="388.90" shape="1100.00,504.80 711.10,504.80"/>
        <lane id="edgeE_O_4" index="4" disallow="pedestrian" speed="18.97" length="388.90" shape="1100.00,501.60 711.10,501.60"/>
    </edge>
    <edge id="edgeN_I" from="juncMain" to="juncN" priority="46">
        <lane id="edgeN_I_0" index="0" allow="pedestrian" speed="17.13" length="582.50" shape="708.00,517.50 708.00,1100.00"/>
        <lane id="edgeN_I_1" index="1" disallow="pedestrian" speed="17.13" length="582.50" shape="704.80,517.50 704.80,1100.00"/>
        <lane id="edgeN_I_2" index="2" disallow="pedestrian" speed="17.13" length="582.50" shape="701.60,517.50 701.60,1100.00"/>
    </edge>
    <edge id="edgeN_O" from="juncN" to="juncMain" priority="78">
        <lane id="edgeN_O_0" index="0" allow="pedestrian" speed="16.95" length="582.50" shape="692.00,1100.00 692.00,517.50"/>
        <lane id="edgeN_O_1" index="1" disallow="pedestrian" speed="16.95" length="582.50" shape="695.20,1100.00 695.20,517.50"/>
        <lane id="edgeN_O_2" index="2" disallow="pedestrian" speed="16.95" length="582.50" shape="698.40,1100.00 698.40,517.50"/>
    </edge>
    <edge id="edgeS_I" from="juncMain" to="juncS" priority="46">
        <lane id="edgeS_I_0" index="0" allow="pedestrian" speed="17.13" length="482.50" shape="692.00,482.50 692.00,0.00"/>
        <lane id="edgeS_I_1" index="1" disallow="pedestrian" speed="17.13" length="482.50" shape="695.20,482.50 695.20,0.00"/>
        <lane id="edgeS_I_2" index="2" disallow="pedestrian" speed="17.13" length="482.50" shape="698.40,482.50 698.40,0.00"/>
    </edge>
    <edge id="edgeS_O" from="juncS" to="juncMain" priority="78">
        <lane id="edgeS_O_0" index="0" allow="pedestrian" speed="16.95" length="482.50" shape="708.00,0.00 708.00,482.50"/>
        <lane id="edgeS_O_1" index="1" disallow="pedestrian" speed="16.95" length="482.50" shape="704.80,0.00 704.80,482.50"/>
        <lane id="edgeS_O_2" index="2" disallow="pedestrian" speed="16.95" length="482.50" shape="701.60,0.00 701.60,482.50"/>
    </edge>
    <edge id="edgeW_I" from="juncMain" to="juncW" priority="46">
        <lane id="edgeW_I_0" index="0" allow="pedestrian" speed="19.03" length="688.90" shape="688.90,514.40 0.00,514.40"/>
        <lane id="edgeW_I_1" index="1" disallow="pedestrian" speed="19.03" length="688.90" shape="688.90,511.20 0.00,511.20"/>
        <lane id="edgeW_I_2" index="2" disallow="pedestrian" speed="19.03" length="688.90" shape="688.90,508.00 0.00,508.00"/>
        <lane id="edgeW_I_3" index="3" disallow="pedestrian" speed="19.03" length="688.90" shape="688.90,504.80 0.00,504.80"/>
        <lane id="edgeW_I_4" index="4" disallow="pedestrian" speed="19.03" length="688.90" shape="688.90,501.60 0.00,501.60"/>
    </edge>
    <edge id="edgeW_O" from="juncW" to="juncMain" priority="78">
        <lane id="edgeW_O_0" index="0" allow="pedestrian" speed="18.97" length="688.90" shape="0.00,485.60 688.90,485.60"/>
        <lane id="edgeW_O_1" index="1" disallow="pedestrian" speed="18.97" length="688.90" shape="0.00,488.80 688.90,488.80"/>
        <lane id="edgeW_O_2" index="2" disallow="pedestrian" speed="18.97" length="688.90" shape="0.00,492.00 688.90,492.00"/>
        <lane id="edgeW_O_3" index="3" disallow="pedestrian" speed="18.97" length="688.90" shape="0.00,495.20 688.90,495.20"/>
        <lane id="edgeW_O_4" index="4" disallow="pedestrian" speed="18.97" length="688.90" shape="0.00,498.40 688.90,498.40"/>
    </edge>

    <tlLogic id="juncMain" type="static" programID="0" offset="0">
        <phase duration="31" state="rrGGGgGrrGGGgGGrGr"/>
        <phase duration="5"  state="rrGGGgGrrGGGgGrrrr"/>
        <phase duration="4"  state="rryyygyrryyygyrrrr"/>
        <phase duration="6"  state="rrrrrGrrrrrrGrrrrr"/>
        <phase duration="4"  state="rrrrryrrrrrryrrrrr"/>
        <phase duration="31" state="GGrrrrrGGrrrrrrGrG"/>
        <phase duration="5"  state="GGrrrrrGGrrrrrrrrr"/>
        <phase duration="4"  state="yyrrrrryyrrrrrrrrr"/>
    </tlLogic>

    <junction id="juncE" type="priority" x="1100.00" y="500.00" incLanes="edgeE_I_0 edgeE_I_1 edgeE_I_2 edgeE_I_3 edgeE_I_4" intLanes=":juncE_0_0" shape="1100.00,500.00 1100.00,484.00 1100.00,500.00">
        <request index="0" response="0" foes="0" cont="0"/>
    </junction>
    <junction id="juncMain" type="traffic_light" x="700.00" y="500.00" incLanes="edgeN_O_0 edgeN_O_1 edgeN_O_2 edgeE_O_0 edgeE_O_1 edgeE_O_2 edgeE_O_3 edgeE_O_4 edgeS_O_0 edgeS_O_1 edgeS_O_2 edgeW_O_0 edgeW_O_1 edgeW_O_2 edgeW_O_3 edgeW_O_4 :juncMain_w1_0 :juncMain_w2_0 :juncMain_w3_0 :juncMain_w0_0" intLanes=":juncMain_0_0 :juncMain_0_1 :juncMain_2_0 :juncMain_2_1 :juncMain_2_2 :juncMain_14_0 :juncMain_6_0 :juncMain_7_0 :juncMain_7_1 :juncMain_9_0 :juncMain_9_1 :juncMain_9_2 :juncMain_15_0 :juncMain_13_0 :juncMain_c0_0 :juncMain_c1_0 :juncMain_c2_0 :juncMain_c3_0" shape="690.40,517.50 709.60,517.50 709.77,516.67 709.98,516.38 710.27,516.17 710.64,516.04 711.10,516.00 711.10,484.00 710.27,483.83 709.98,483.62 709.77,483.33 709.64,482.96 709.60,482.50 690.40,482.50 690.23,483.33 690.02,483.62 689.73,483.83 689.36,483.96 688.90,484.00 688.90,516.00 689.73,516.17 690.02,516.38 690.23,516.67 690.36,517.04">
        <request index="0"  response="010101111000111100" foes="010101111000111100" cont="0"/>
        <request index="1"  response="010101111000111100" foes="010101111000111100" cont="0"/>
        <request index="2"  response="101000000000000000" foes="101001000110000011" cont="0"/>
        <request index="3"  response="101000000000000000" foes="101001000110000011" cont="0"/>
        <request index="4"  response="101000000000000000" foes="101001000110000011" cont="0"/>
        <request index="5"  response="011000111000000000" foes="011000111110000011" cont="1"/>
        <request index="6"  response="001000000000000000" foes="001000000000000000" cont="0"/>
        <request index="7"  response="010101111000111100" foes="010101111000111100" cont="0"/>
        <request index="8"  response="010101111000111100" foes="010101111000111100" cont="0"/>
        <request index="9"  response="101000000000000000" foes="101000000110100011" cont="0"/>
        <request index="10" response="101000000000000000" foes="101000000110100011" cont="0"/>
        <request index="11" response="101000000000000000" foes="101000000110100011" cont="0"/>
        <request index="12" response="100100000000011100" foes="100100000110011111" cont="1"/>
        <request index="13" response="100000000000000000" foes="100000000000000000" cont="0"/>
        <request index="14" response="000000000000000000" foes="000001000110000011" cont="0"/>
        <request index="15" response="000000000000000000" foes="000000111001111100" cont="0"/>
        <request index="16" response="000000000000000000" foes="000000000110100011" cont="0"/>
        <request index="17" response="000000000000000000" foes="000011111000011100" cont="0"/>
    </junction>
    <junction id="juncN" type="priority" x="700.00" y="1100.00" incLanes="edgeN_I_0 edgeN_I_1 edgeN_I_2" intLanes=":juncN_0_0" shape="700.00,1100.00 709.60,1100.00 700.00,1100.00">
        <request index="0" response="0" foes="0" cont="0"/>
    </junction>
    <junction id="juncS" type="priority" x="700.00" y="0.00" incLanes="edgeS_I_0 edgeS_I_1 edgeS_I_2" intLanes=":juncS_0_0" shape="700.00,0.00 690.40,0.00 700.00,0.00">
        <request index="0" response="0" foes="0" cont="0"/>
    </junction>
    <junction id="juncW" type="priority" x="0.00" y="500.00" incLanes="edgeW_I_0 edgeW_I_1 edgeW_I_2 edgeW_I_3 edgeW_I_4" intLanes=":juncW_0_0" shape="0.00,500.00 0.00,516.00 0.00,500.00">
        <request index="0" response="0" foes="0" cont="0"/>
    </junction>

    <junction id=":juncMain_14_0" type="internal" x="701.58" y="496.83" incLanes=":juncMain_5_0 edgeW_O_1 edgeW_O_2 edgeW_O_3" intLanes=":juncMain_0_0 :juncMain_0_1 :juncMain_7_0 :juncMain_7_1 :juncMain_9_0 :juncMain_9_1 :juncMain_9_2 :juncMain_c1_0 :juncMain_c2_0"/>
    <junction id=":juncMain_15_0" type="internal" x="698.42" y="503.17" incLanes=":juncMain_12_0 edgeE_O_1 edgeE_O_2 edgeE_O_3" intLanes=":juncMain_0_0 :juncMain_0_1 :juncMain_2_0 :juncMain_2_1 :juncMain_2_2 :juncMain_7_0 :juncMain_7_1 :juncMain_c0_0 :juncMain_c3_0"/>

    <connection from="edgeE_I" to="edgeE_O" fromLane="4" toLane="4" via=":juncE_0_0" dir="t" state="M"/>
    <connection from="edgeE_O" to="edgeW_I" fromLane="1" toLane="1" via=":juncMain_2_0" tl="juncMain" linkIndex="2" dir="s" state="o"/>
    <connection from="edgeE_O" to="edgeW_I" fromLane="2" toLane="2" via=":juncMain_2_1" tl="juncMain" linkIndex="3" dir="s" state="o"/>
    <connection from="edgeE_O" to="edgeW_I" fromLane="3" toLane="3" via=":juncMain_2_2" tl="juncMain" linkIndex="4" dir="s" state="o"/>
    <connection from="edgeE_O" to="edgeS_I" fromLane="4" toLane="2" via=":juncMain_5_0" tl="juncMain" linkIndex="5" dir="l" state="o"/>
    <connection from="edgeE_O" to="edgeE_I" fromLane="4" toLane="4" via=":juncMain_6_0" tl="juncMain" linkIndex="6" dir="t" state="o"/>
    <connection from="edgeN_I" to="edgeN_O" fromLane="2" toLane="2" via=":juncN_0_0" dir="t" state="M"/>
    <connection from="edgeN_O" to="edgeS_I" fromLane="1" toLane="1" via=":juncMain_0_0" tl="juncMain" linkIndex="0" dir="s" state="o"/>
    <connection from="edgeN_O" to="edgeS_I" fromLane="2" toLane="2" via=":juncMain_0_1" tl="juncMain" linkIndex="1" dir="s" state="o"/>
    <connection from="edgeS_I" to="edgeS_O" fromLane="2" toLane="2" via=":juncS_0_0" dir="t" state="M"/>
    <connection from="edgeS_O" to="edgeN_I" fromLane="1" toLane="1" via=":juncMain_7_0" tl="juncMain" linkIndex="7" dir="s" state="o"/>
    <connection from="edgeS_O" to="edgeN_I" fromLane="2" toLane="2" via=":juncMain_7_1" tl="juncMain" linkIndex="8" dir="s" state="o"/>
    <connection from="edgeW_I" to="edgeW_O" fromLane="4" toLane="4" via=":juncW_0_0" dir="t" state="M"/>
    <connection from="edgeW_O" to="edgeE_I" fromLane="1" toLane="1" via=":juncMain_9_0" tl="juncMain" linkIndex="9" dir="s" state="o"/>
    <connection from="edgeW_O" to="edgeE_I" fromLane="2" toLane="2" via=":juncMain_9_1" tl="juncMain" linkIndex="10" dir="s" state="o"/>
    <connection from="edgeW_O" to="edgeE_I" fromLane="3" toLane="3" via=":juncMain_9_2" tl="juncMain" linkIndex="11" dir="s" state="o"/>
    <connection from="edgeW_O" to="edgeN_I" fromLane="4" toLane="2" via=":juncMain_12_0" tl="juncMain" linkIndex="12" dir="l" state="o"/>
    <connection from="edgeW_O" to="edgeW_I" fromLane="4" toLane="4" via=":juncMain_13_0" tl="juncMain" linkIndex="13" dir="t" state="o"/>

    <connection from=":juncE_0" to="edgeE_O" fromLane="0" toLane="4" dir="t" state="M"/>
    <connection from=":juncMain_0" to="edgeS_I" fromLane="0" toLane="1" dir="s" state="M"/>
    <connection from=":juncMain_0" to="edgeS_I" fromLane="1" toLane="2" dir="s" state="M"/>
    <connection from=":juncMain_2" to="edgeW_I" fromLane="0" toLane="1" dir="s" state="M"/>
    <connection from=":juncMain_2" to="edgeW_I" fromLane="1" toLane="2" dir="s" state="M"/>
    <connection from=":juncMain_2" to="edgeW_I" fromLane="2" toLane="3" dir="s" state="M"/>
    <connection from=":juncMain_5" to="edgeS_I" fromLane="0" toLane="2" via=":juncMain_14_0" dir="l" state="m"/>
    <connection from=":juncMain_14" to="edgeS_I" fromLane="0" toLane="2" dir="l" state="M"/>
    <connection from=":juncMain_6" to="edgeE_I" fromLane="0" toLane="4" dir="t" state="M"/>
    <connection from=":juncMain_7" to="edgeN_I" fromLane="0" toLane="1" dir="s" state="M"/>
    <connection from=":juncMain_7" to="edgeN_I" fromLane="1" toLane="2" dir="s" state="M"/>
    <connection from=":juncMain_9" to="edgeE_I" fromLane="0" toLane="1" dir="s" state="M"/>
    <connection from=":juncMain_9" to="edgeE_I" fromLane="1" toLane="2" dir="s" state="M"/>
    <connection from=":juncMain_9" to="edgeE_I" fromLane="2" toLane="3" dir="s" state="M"/>
    <connection from=":juncMain_12" to="edgeN_I" fromLane="0" toLane="2" via=":juncMain_15_0" dir="l" state="m"/>
    <connection from=":juncMain_15" to="edgeN_I" fromLane="0" toLane="2" dir="l" state="M"/>
    <connection from=":juncMain_13" to="edgeW_I" fromLane="0" toLane="4" dir="t" state="M"/>
    <connection from=":juncN_0" to="edgeN_O" fromLane="0" toLane="2" dir="t" state="M"/>
    <connection from=":juncS_0" to="edgeS_O" fromLane="0" toLane="2" dir="t" state="M"/>
    <connection from=":juncW_0" to="edgeW_O" fromLane="0" toLane="4" dir="t" state="M"/>

    <connection from=":juncE_w0" to="edgeE_O" fromLane="0" toLane="0" dir="s" state="M"/>
    <connection from="edgeE_I" to=":juncE_w0" fromLane="0" toLane="0" dir="s" state="M"/>
    <connection from=":juncMain_c0" to=":juncMain_w0" fromLane="0" toLane="0" dir="s" state="M"/>
    <connection from=":juncMain_c1" to=":juncMain_w1" fromLane="0" toLane="0" dir="s" state="M"/>
    <connection from=":juncMain_c2" to=":juncMain_w2" fromLane="0" toLane="0" dir="s" state="M"/>
    <connection from=":juncMain_c3" to=":juncMain_w3" fromLane="0" toLane="0" dir="s" state="M"/>
    <connection from=":juncMain_w0" to=":juncMain_c3" fromLane="0" toLane="0" tl="juncMain" linkIndex="17" dir="s" state="M"/>
    <connection from=":juncMain_w0" to="edgeW_I" fromLane="0" toLane="0" dir="s" state="M"/>
    <connection from="edgeN_O" to=":juncMain_w0" fromLane="0" toLane="0" dir="s" state="M"/>
    <connection from=":juncMain_w1" to=":juncMain_c0" fromLane="0" toLane="0" tl="juncMain" linkIndex="14" dir="s" state="M"/>
    <connection from=":juncMain_w1" to="edgeN_I" fromLane="0" toLane="0" dir="s" state="M"/>
    <connection from="edgeE_O" to=":juncMain_w1" fromLane="0" toLane="0" dir="s" state="M"/>
    <connection from=":juncMain_w2" to=":juncMain_c1" fromLane="0" toLane="0" tl="juncMain" linkIndex="15" dir="s" state="M"/>
    <connection from=":juncMain_w2" to="edgeE_I" fromLane="0" toLane="0" dir="s" state="M"/>
    <connection from="edgeS_O" to=":juncMain_w2" fromLane="0" toLane="0" dir="s" state="M"/>
    <connection from=":juncMain_w3" to=":juncMain_c2" fromLane="0" toLane="0" tl="juncMain" linkIndex="16" dir="s" state="M"/>
    <connection from=":juncMain_w3" to="edgeS_I" fromLane="0" toLane="0" dir="s" state="M"/>
    <connection from="edgeW_O" to=":juncMain_w3" fromLane="0" toLane="0" dir="s" state="M"/>
    <connection from=":juncN_w0" to="edgeN_O" fromLane="0" toLane="0" dir="s" state="M"/>
    <connection from="edgeN_I" to=":juncN_w0" fromLane="0" toLane="0" dir="s" state="M"/>
    <connection from=":juncS_w0" to="edgeS_O" fromLane="0" toLane="0" dir="s" state="M"/>
    <connection from="edgeS_I" to=":juncS_w0" fromLane="0" toLane="0" dir="s" state="M"/>
    <connection from=":juncW_w0" to="edgeW_O" fromLane="0" toLane="0" dir="s" state="M"/>
    <connection from="edgeW_I" to=":juncW_w0" fromLane="0" toLane="0" dir="s" state="M"/>
</net>
