<additional>
   <tlLogic id="juncMain" type="static" programID="1" offset="0">
       <phase duration="96.951476" state="GGrrrrrGGrrrrrrGrG"/>
       <phase duration="4.591820" state="yyrrrrryyrrrrrrGrG"/>
       <phase duration="11.306656" state="rrrrrrrrrrrrrrrGrG"/>
       <phase duration="22.057048" state="rrrrrGGrrrrrGGrrrr"/>
       <phase duration="34.784890" state="rrGGGggrrGGGggGrGr"/>
       <phase duration="5.613581" state="rryyyyyrryyyyyGrGr"/>
       <phase duration="6.148996" state="rrrrrrrrrrrrrrGrGr"/>
   </tlLogic>
</additional>
