<routes>
   <personFlow id="pRegN" begin="0" end="3000" personsPerHour="605.309899">
        <walk edges="edgeN_O edgeS_I" speed="1.789189"/>
    </personFlow>
   <personFlow id="pRegS" begin="0" end="3000" personsPerHour="795.082204">
        <walk edges="edgeS_O edgeN_I" speed="0.907035"/>
    </personFlow>
   <personFlow id="pRegW" begin="0" end="3000" personsPerHour="331.485639">
        <walk edges="edgeW_O edgeE_I" speed="1.395788"/>
    </personFlow>
   <personFlow id="pRegE" begin="0" end="3000" personsPerHour="780.785846">
        <walk edges="edgeE_O edgeW_I" speed="1.700410"/>
    </personFlow>
   <personFlow id="pOppN" begin="0" end="3000" personsPerHour="705.739104" departPos="1000.000000">
        <walk edges="edgeN_I edgeS_O" speed="1.848755"/>
    </personFlow>
   <personFlow id="pOppS" begin="0" end="3000" personsPerHour="222.584944" departPos="300.000000">
        <walk edges="edgeS_I edgeN_O" speed="1.130230"/>
    </personFlow>
   <personFlow id="pOppW" begin="0" end="3000" personsPerHour="249.910604" departPos="500.000000">
        <walk edges="edgeW_I edgeE_O" speed="1.832157"/>
    </personFlow>
   <personFlow id="pOppE" begin="0" end="3000" personsPerHour="154.239212" departPos="1000.000000">
        <walk edges="edgeE_I edgeW_O" speed="1.627619"/>
    </personFlow>

    <route id="edgeN_edgeN" edges="edgeN_O edgeN_I" />
    <route id="edgeN_edgeS" edges="edgeN_O edgeS_I" />
    <route id="edgeN_edgeW" edges="edgeN_O edgeW_I" />
    <route id="edgeN_edgeE" edges="edgeN_O edgeE_I" />
    <route id="edgeS_edgeN" edges="edgeS_O edgeN_I" />
    <route id="edgeS_edgeS" edges="edgeS_O edgeS_I" />
    <route id="edgeS_edgeW" edges="edgeS_O edgeW_I" />
    <route id="edgeS_edgeE" edges="edgeS_O edgeE_I" />
    <route id="edgeW_edgeN" edges="edgeW_O edgeN_I" />
    <route id="edgeW_edgeS" edges="edgeW_O edgeS_I" />
    <route id="edgeW_edgeW" edges="edgeW_O edgeW_I" />
    <route id="edgeW_edgeE" edges="edgeW_O edgeE_I" />
    <route id="edgeE_edgeN" edges="edgeE_O edgeN_I" />
    <route id="edgeE_edgeS" edges="edgeE_O edgeS_I" />
    <route id="edgeE_edgeW" edges="edgeE_O edgeW_I" />
    <route id="edgeE_edgeE" edges="edgeE_O edgeE_I" />
    
   <vType id="vehicleS_0" length="4.218000" accel="3.394000" decel="4.710000" sigma="0.5" minGap="2.486929" maxSpeed="131.531412" guiShape="passenger" />
   <vehicle id="straightS_0" type="vehicleS_0" route="edgeS_edgeN" depart="0" departLane="5" />

   <vType id="vehicleW_1" length="3.894000" accel="2.541000" decel="4.162000" sigma="0.5" minGap="2.486929" maxSpeed="131.531412" guiShape="passenger" />
   <vehicle id="straightW_1" type="vehicleW_1" route="edgeW_edgeE" depart="0" departLane="1" />

   <vType id="vehicleW_2" length="4.310000" accel="3.612000" decel="4.973000" sigma="0.5" minGap="2.486929" maxSpeed="131.531412" guiShape="passenger" />
   <vehicle id="straightW_2" type="vehicleW_2" route="edgeW_edgeE" depart="1" departLane="1" />

   <vType id="vehicleS_3" length="4.408000" accel="2.333000" decel="2.853000" sigma="0.5" minGap="2.486929" maxSpeed="131.531412" guiShape="passenger" />
   <vehicle id="uturnS_3" type="vehicleS_3" route="edgeS_edgeS" depart="2" departLane="5" />

   <vType id="vehicleW_4" length="4.478000" accel="3.090000" decel="5.200000" sigma="0.5" minGap="2.486929" maxSpeed="131.531412" guiShape="passenger" />
   <vehicle id="uturnW_4" type="vehicleW_4" route="edgeW_edgeW" depart="3" departLane="4" />

   <vType id="vehicleS_5" length="3.921000" accel="2.556000" decel="3.470000" sigma="0.5" minGap="2.486929" maxSpeed="131.531412" guiShape="passenger" />
   <vehicle id="straightS_5" type="vehicleS_5" route="edgeS_edgeN" depart="4" departLane="1" />

   <vType id="vehicleS_6" length="4.117000" accel="2.766000" decel="4.690000" sigma="0.5" minGap="2.486929" maxSpeed="131.531412" guiShape="passenger" />
   <vehicle id="rightS_6" type="vehicleS_6" route="edgeS_edgeE" depart="5" departLane="1" />

   <vType id="vehicleE_7" length="4.118000" accel="2.806000" decel="5.712000" sigma="0.5" minGap="2.486929" maxSpeed="131.531412" guiShape="passenger" />
   <vehicle id="straightE_7" type="vehicleE_7" route="edgeE_edgeW" depart="5" departLane="3" />

   <vType id="vehicleS_8" length="5.132000" accel="2.273000" decel="5.175000" sigma="0.5" minGap="2.486929" maxSpeed="131.531412" guiShape="passenger" />
   <vehicle id="straightS_8" type="vehicleS_8" route="edgeS_edgeN" depart="6" departLane="3" />

   <vType id="vehicleW_9" length="5.374000" accel="3.115000" decel="4.842000" sigma="0.5" minGap="2.486929" maxSpeed="131.531412" guiShape="passenger" />
   <vehicle id="leftW_9" type="vehicleW_9" route="edgeW_edgeN" depart="6" departLane="3" />

   <vType id="vehicleW_10" length="4.257000" accel="3.105000" decel="3.385000" sigma="0.5" minGap="2.486929" maxSpeed="131.531412" guiShape="passenger" />
   <vehicle id="straightW_10" type="vehicleW_10" route="edgeW_edgeE" depart="7" departLane="3" />

   <vType id="vehicleE_11" length="4.451000" accel="3.823000" decel="2.986000" sigma="0.5" minGap="2.486929" maxSpeed="131.531412" guiShape="passenger" />
   <vehicle id="straightE_11" type="vehicleE_11" route="edgeE_edgeW" depart="7" departLane="2" />

   <vType id="vehicleN_12" length="4.028000" accel="3.214000" decel="5.080000" sigma="0.5" minGap="2.486929" maxSpeed="131.531412" guiShape="passenger" />
   <vehicle id="straightN_12" type="vehicleN_12" route="edgeN_edgeS" depart="8" departLane="4" />

   <vType id="vehicleW_13" length="4.628000" accel="2.595000" decel="4.315000" sigma="0.5" minGap="2.486929" maxSpeed="131.531412" guiShape="passenger" />
   <vehicle id="straightW_13" type="vehicleW_13" route="edgeW_edgeE" depart="8" departLane="1" />

   <vType id="vehicleN_14" length="5.102000" accel="3.447000" decel="3.633000" sigma="0.5" minGap="2.486929" maxSpeed="131.531412" guiShape="passenger" />
   <vehicle id="rightN_14" type="vehicleN_14" route="edgeN_edgeW" depart="9" departLane="1" />

   <vType id="vehicleS_15" length="5.442000" accel="3.623000" decel="3.387000" sigma="0.5" minGap="2.486929" maxSpeed="131.531412" guiShape="passenger" />
   <vehicle id="straightS_15" type="vehicleS_15" route="edgeS_edgeN" depart="9" departLane="5" />

   <vType id="vehicleE_16" length="4.892000" accel="3.567000" decel="4.169000" sigma="0.5" minGap="2.486929" maxSpeed="131.531412" guiShape="passenger" />
   <vehicle id="leftE_16" type="vehicleE_16" route="edgeE_edgeS" depart="9" departLane="3" />

   <vType id="vehicleN_17" length="4.748000" accel="3.463000" decel="4.242000" sigma="0.5" minGap="2.486929" maxSpeed="131.531412" guiShape="passenger" />
   <vehicle id="rightN_17" type="vehicleN_17" route="edgeN_edgeW" depart="10" departLane="1" />

   <vType id="vehicleW_18" length="4.452000" accel="3.804000" decel="5.127000" sigma="0.5" minGap="2.486929" maxSpeed="131.531412" guiShape="passenger" />
   <vehicle id="leftW_18" type="vehicleW_18" route="edgeW_edgeN" depart="10" departLane="3" />

   <vType id="vehicleE_19" length="5.431000" accel="2.322000" decel="4.100000" sigma="0.5" minGap="2.486929" maxSpeed="131.531412" guiShape="passenger" />
   <vehicle id="rightE_19" type="vehicleE_19" route="edgeE_edgeN" depart="10" departLane="1" />

   <vType id="vehicleS_20" length="4.950000" accel="3.740000" decel="3.072000" sigma="0.5" minGap="2.486929" maxSpeed="131.531412" guiShape="passenger" />
   <vehicle id="straightS_20" type="vehicleS_20" route="edgeS_edgeN" depart="11" departLane="5" />

   <vType id="vehicleE_21" length="4.748000" accel="3.383000" decel="3.187000" sigma="0.5" minGap="2.486929" maxSpeed="131.531412" guiShape="passenger" />
   <vehicle id="leftE_21" type="vehicleE_21" route="edgeE_edgeS" depart="11" departLane="4" />

   <vType id="vehicleW_22" length="4.601000" accel="2.589000" decel="2.748000" sigma="0.5" minGap="2.486929" maxSpeed="131.531412" guiShape="passenger" />
   <vehicle id="rightW_22" type="vehicleW_22" route="edgeW_edgeS" depart="12" departLane="1" />

   <vType id="vehicleS_23" length="4.902000" accel="2.558000" decel="5.443000" sigma="0.5" minGap="2.486929" maxSpeed="131.531412" guiShape="passenger" />
   <vehicle id="straightS_23" type="vehicleS_23" route="edgeS_edgeN" depart="13" departLane="3" />

   <vType id="vehicleW_24" length="4.965000" accel="2.533000" decel="2.967000" sigma="0.5" minGap="2.486929" maxSpeed="131.531412" guiShape="passenger" />
   <vehicle id="straightW_24" type="vehicleW_24" route="edgeW_edgeE" depart="13" departLane="3" />

   <vType id="vehicleS_25" length="4.002000" accel="3.266000" decel="3.678000" sigma="0.5" minGap="2.486929" maxSpeed="131.531412" guiShape="passenger" />
   <vehicle id="straightS_25" type="vehicleS_25" route="edgeS_edgeN" depart="14" departLane="4" />

   <vType id="vehicleW_26" length="4.972000" accel="3.802000" decel="2.858000" sigma="0.5" minGap="2.486929" maxSpeed="131.531412" guiShape="passenger" />
   <vehicle id="straightW_26" type="vehicleW_26" route="edgeW_edgeE" depart="14" departLane="2" />

   <vType id="vehicleS_27" length="4.743000" accel="2.411000" decel="3.131000" sigma="0.5" minGap="2.486929" maxSpeed="131.531412" guiShape="passenger" />
   <vehicle id="straightS_27" type="vehicleS_27" route="edgeS_edgeN" depart="15" departLane="4" />

   <vType id="vehicleW_28" length="4.587000" accel="3.599000" decel="4.306000" sigma="0.5" minGap="2.486929" maxSpeed="131.531412" guiShape="passenger" />
   <vehicle id="uturnW_28" type="vehicleW_28" route="edgeW_edgeW" depart="15" departLane="4" />

   <vType id="vehicleE_29" length="5.245000" accel="3.777000" decel="5.510000" sigma="0.5" minGap="2.486929" maxSpeed="131.531412" guiShape="passenger" />
   <vehicle id="uturnE_29" type="vehicleE_29" route="edgeE_edgeE" depart="15" departLane="4" />

   <vType id="vehicleS_30" length="4.202000" accel="2.841000" decel="2.731000" sigma="0.5" minGap="2.486929" maxSpeed="131.531412" guiShape="passenger" />
   <vehicle id="straightS_30" type="vehicleS_30" route="edgeS_edgeN" depart="16" departLane="4" />

   <vType id="vehicleW_31" length="5.397000" accel="3.474000" decel="3.457000" sigma="0.5" minGap="2.486929" maxSpeed="131.531412" guiShape="passenger" />
   <vehicle id="straightW_31" type="vehicleW_31" route="edgeW_edgeE" depart="16" departLane="3" />

   <vType id="vehicleS_32" length="4.103000" accel="2.669000" decel="5.646000" sigma="0.5" minGap="2.486929" maxSpeed="131.531412" guiShape="passenger" />
   <vehicle id="straightS_32" type="vehicleS_32" route="edgeS_edgeN" depart="17" departLane="5" />

   <vType id="vehicleE_33" length="3.928000" accel="2.966000" decel="5.488000" sigma="0.5" minGap="2.486929" maxSpeed="131.531412" guiShape="passenger" />
   <vehicle id="straightE_33" type="vehicleE_33" route="edgeE_edgeW" depart="17" departLane="3" />

   <vType id="vehicleN_34" length="3.978000" accel="2.487000" decel="4.449000" sigma="0.5" minGap="2.486929" maxSpeed="131.531412" guiShape="passenger" />
   <vehicle id="uturnN_34" type="vehicleN_34" route="edgeN_edgeN" depart="18" departLane="5" />

   <vType id="vehicleW_35" length="5.336000" accel="2.586000" decel="4.447000" sigma="0.5" minGap="2.486929" maxSpeed="131.531412" guiShape="passenger" />
   <vehicle id="leftW_35" type="vehicleW_35" route="edgeW_edgeN" depart="18" departLane="3" />

   <vType id="vehicleE_36" length="4.720000" accel="3.720000" decel="3.197000" sigma="0.5" minGap="2.486929" maxSpeed="131.531412" guiShape="passenger" />
   <vehicle id="straightE_36" type="vehicleE_36" route="edgeE_edgeW" depart="18" departLane="3" />

   <vType id="vehicleS_37" length="4.926000" accel="2.934000" decel="5.519000" sigma="0.5" minGap="2.486929" maxSpeed="131.531412" guiShape="passenger" />
   <vehicle id="straightS_37" type="vehicleS_37" route="edgeS_edgeN" depart="19" departLane="1" />

   <vType id="vehicleW_38" length="4.787000" accel="2.345000" decel="4.265000" sigma="0.5" minGap="2.486929" maxSpeed="131.531412" guiShape="passenger" />
   <vehicle id="straightW_38" type="vehicleW_38" route="edgeW_edgeE" depart="19" departLane="3" />

   <vType id="vehicleE_39" length="5.320000" accel="3.629000" decel="3.727000" sigma="0.5" minGap="2.486929" maxSpeed="131.531412" guiShape="passenger" />
   <vehicle id="uturnE_39" type="vehicleE_39" route="edgeE_edgeE" depart="19" departLane="4" />

   <vType id="vehicleN_40" length="5.023000" accel="3.188000" decel="5.705000" sigma="0.5" minGap="2.486929" maxSpeed="131.531412" guiShape="passenger" />
   <vehicle id="rightN_40" type="vehicleN_40" route="edgeN_edgeW" depart="20" departLane="1" />

   <vType id="vehicleW_41" length="4.018000" accel="3.627000" decel="3.390000" sigma="0.5" minGap="2.486929" maxSpeed="131.531412" guiShape="passenger" />
   <vehicle id="uturnW_41" type="vehicleW_41" route="edgeW_edgeW" depart="20" departLane="4" />

   <vType id="vehicleS_42" length="4.197000" accel="2.745000" decel="4.745000" sigma="0.5" minGap="2.486929" maxSpeed="131.531412" guiShape="passenger" />
   <vehicle id="straightS_42" type="vehicleS_42" route="edgeS_edgeN" depart="21" departLane="3" />

   <vType id="vehicleW_43" length="5.366000" accel="2.264000" decel="4.575000" sigma="0.5" minGap="2.486929" maxSpeed="131.531412" guiShape="passenger" />
   <vehicle id="straightW_43" type="vehicleW_43" route="edgeW_edgeE" depart="21" departLane="2" />

   <vType id="vehicleE_44" length="4.063000" accel="3.794000" decel="3.060000" sigma="0.5" minGap="2.486929" maxSpeed="131.531412" guiShape="passenger" />
   <vehicle id="straightE_44" type="vehicleE_44" route="edgeE_edgeW" depart="21" departLane="2" />

   <vType id="vehicleS_45" length="3.970000" accel="3.635000" decel="5.438000" sigma="0.5" minGap="2.486929" maxSpeed="131.531412" guiShape="passenger" />
   <vehicle id="leftS_45" type="vehicleS_45" route="edgeS_edgeW" depart="22" departLane="5" />

   <vType id="vehicleN_46" length="4.361000" accel="3.661000" decel="5.093000" sigma="0.5" minGap="2.486929" maxSpeed="131.531412" guiShape="passenger" />
   <vehicle id="straightN_46" type="vehicleN_46" route="edgeN_edgeS" depart="23" departLane="1" />

   <vType id="vehicleW_47" length="4.016000" accel="3.466000" decel="5.375000" sigma="0.5" minGap="2.486929" maxSpeed="131.531412" guiShape="passenger" />
   <vehicle id="straightW_47" type="vehicleW_47" route="edgeW_edgeE" depart="23" departLane="2" />

   <vType id="vehicleW_48" length="5.184000" accel="2.472000" decel="3.864000" sigma="0.5" minGap="2.486929" maxSpeed="131.531412" guiShape="passenger" />
   <vehicle id="leftW_48" type="vehicleW_48" route="edgeW_edgeN" depart="24" departLane="3" />

   <vType id="vehicleS_49" length="4.025000" accel="3.617000" decel="5.293000" sigma="0.5" minGap="2.486929" maxSpeed="131.531412" guiShape="passenger" />
   <vehicle id="rightS_49" type="vehicleS_49" route="edgeS_edgeE" depart="26" departLane="1" />

   <vType id="vehicleW_50" length="4.430000" accel="3.532000" decel="5.334000" sigma="0.5" minGap="2.486929" maxSpeed="131.531412" guiShape="passenger" />
   <vehicle id="uturnW_50" type="vehicleW_50" route="edgeW_edgeW" depart="26" departLane="4" />

   <vType id="vehicleE_51" length="4.512000" accel="2.639000" decel="2.765000" sigma="0.5" minGap="2.486929" maxSpeed="131.531412" guiShape="passenger" />
   <vehicle id="straightE_51" type="vehicleE_51" route="edgeE_edgeW" depart="26" departLane="2" />

   <vType id="vehicleS_52" length="5.258000" accel="2.726000" decel="2.631000" sigma="0.5" minGap="2.486929" maxSpeed="131.531412" guiShape="passenger" />
   <vehicle id="straightS_52" type="vehicleS_52" route="edgeS_edgeN" depart="27" departLane="3" />

   <vType id="vehicleW_53" length="4.289000" accel="2.359000" decel="3.935000" sigma="0.5" minGap="2.486929" maxSpeed="131.531412" guiShape="passenger" />
   <vehicle id="uturnW_53" type="vehicleW_53" route="edgeW_edgeW" depart="27" departLane="4" />

   <vType id="vehicleW_54" length="4.810000" accel="2.600000" decel="4.813000" sigma="0.5" minGap="2.486929" maxSpeed="131.531412" guiShape="passenger" />
   <vehicle id="straightW_54" type="vehicleW_54" route="edgeW_edgeE" depart="28" departLane="1" />

   <vType id="vehicleE_55" length="4.995000" accel="3.729000" decel="4.904000" sigma="0.5" minGap="2.486929" maxSpeed="131.531412" guiShape="passenger" />
   <vehicle id="rightE_55" type="vehicleE_55" route="edgeE_edgeN" depart="28" departLane="1" />

   <vType id="vehicleS_56" length="4.397000" accel="2.698000" decel="5.259000" sigma="0.5" minGap="2.486929" maxSpeed="131.531412" guiShape="passenger" />
   <vehicle id="straightS_56" type="vehicleS_56" route="edgeS_edgeN" depart="29" departLane="3" />

   <vType id="vehicleW_57" length="4.391000" accel="3.329000" decel="4.319000" sigma="0.5" minGap="2.486929" maxSpeed="131.531412" guiShape="passenger" />
   <vehicle id="straightW_57" type="vehicleW_57" route="edgeW_edgeE" depart="29" departLane="1" />

   <vType id="vehicleE_58" length="4.979000" accel="3.668000" decel="4.514000" sigma="0.5" minGap="2.486929" maxSpeed="131.531412" guiShape="passenger" />
   <vehicle id="uturnE_58" type="vehicleE_58" route="edgeE_edgeE" depart="29" departLane="4" />

   <vType id="vehicleS_59" length="4.325000" accel="2.889000" decel="4.401000" sigma="0.5" minGap="2.486929" maxSpeed="131.531412" guiShape="passenger" />
   <vehicle id="leftS_59" type="vehicleS_59" route="edgeS_edgeW" depart="30" departLane="5" />

   <vType id="vehicleW_60" length="4.202000" accel="2.960000" decel="5.430000" sigma="0.5" minGap="2.486929" maxSpeed="131.531412" guiShape="passenger" />
   <vehicle id="straightW_60" type="vehicleW_60" route="edgeW_edgeE" depart="30" departLane="3" />

   <vType id="vehicleE_61" length="4.708000" accel="3.223000" decel="3.617000" sigma="0.5" minGap="2.486929" maxSpeed="131.531412" guiShape="passenger" />
   <vehicle id="leftE_61" type="vehicleE_61" route="edgeE_edgeS" depart="30" departLane="3" />

   <vType id="vehicleS_62" length="3.885000" accel="2.584000" decel="4.065000" sigma="0.5" minGap="2.486929" maxSpeed="131.531412" guiShape="passenger" />
   <vehicle id="straightS_62" type="vehicleS_62" route="edgeS_edgeN" depart="31" departLane="1" />

   <vType id="vehicleW_63" length="4.809000" accel="3.364000" decel="3.773000" sigma="0.5" minGap="2.486929" maxSpeed="131.531412" guiShape="passenger" />
   <vehicle id="rightW_63" type="vehicleW_63" route="edgeW_edgeS" depart="31" departLane="1" />

   <vType id="vehicleE_64" length="3.853000" accel="3.418000" decel="5.009000" sigma="0.5" minGap="2.486929" maxSpeed="131.531412" guiShape="passenger" />
   <vehicle id="straightE_64" type="vehicleE_64" route="edgeE_edgeW" depart="31" departLane="1" />

   <vType id="vehicleS_65" length="5.010000" accel="2.946000" decel="4.328000" sigma="0.5" minGap="2.486929" maxSpeed="131.531412" guiShape="passenger" />
   <vehicle id="rightS_65" type="vehicleS_65" route="edgeS_edgeE" depart="32" departLane="1" />

   <vType id="vehicleW_66" length="4.963000" accel="3.808000" decel="4.450000" sigma="0.5" minGap="2.486929" maxSpeed="131.531412" guiShape="passenger" />
   <vehicle id="rightW_66" type="vehicleW_66" route="edgeW_edgeS" depart="32" departLane="1" />

   <vType id="vehicleS_67" length="4.762000" accel="3.658000" decel="4.925000" sigma="0.5" minGap="2.486929" maxSpeed="131.531412" guiShape="passenger" />
   <vehicle id="rightS_67" type="vehicleS_67" route="edgeS_edgeE" depart="33" departLane="1" />

   <vType id="vehicleW_68" length="5.251000" accel="2.637000" decel="5.034000" sigma="0.5" minGap="2.486929" maxSpeed="131.531412" guiShape="passenger" />
   <vehicle id="straightW_68" type="vehicleW_68" route="edgeW_edgeE" depart="33" departLane="2" />

   <vType id="vehicleS_69" length="4.299000" accel="2.707000" decel="4.273000" sigma="0.5" minGap="2.486929" maxSpeed="131.531412" guiShape="passenger" />
   <vehicle id="straightS_69" type="vehicleS_69" route="edgeS_edgeN" depart="34" departLane="2" />

   <vType id="vehicleW_70" length="4.100000" accel="2.533000" decel="3.872000" sigma="0.5" minGap="2.486929" maxSpeed="131.531412" guiShape="passenger" />
   <vehicle id="straightW_70" type="vehicleW_70" route="edgeW_edgeE" depart="34" departLane="2" />

   <vType id="vehicleS_71" length="5.360000" accel="3.143000" decel="4.771000" sigma="0.5" minGap="2.486929" maxSpeed="131.531412" guiShape="passenger" />
   <vehicle id="straightS_71" type="vehicleS_71" route="edgeS_edgeN" depart="35" departLane="5" />

   <vType id="vehicleW_72" length="4.433000" accel="3.422000" decel="5.277000" sigma="0.5" minGap="2.486929" maxSpeed="131.531412" guiShape="passenger" />
   <vehicle id="leftW_72" type="vehicleW_72" route="edgeW_edgeN" depart="35" departLane="4" />

   <vType id="vehicleE_73" length="4.658000" accel="2.821000" decel="4.685000" sigma="0.5" minGap="2.486929" maxSpeed="131.531412" guiShape="passenger" />
   <vehicle id="straightE_73" type="vehicleE_73" route="edgeE_edgeW" depart="36" departLane="2" />

   <vType id="vehicleN_74" length="5.297000" accel="2.480000" decel="3.376000" sigma="0.5" minGap="2.486929" maxSpeed="131.531412" guiShape="passenger" />
   <vehicle id="straightN_74" type="vehicleN_74" route="edgeN_edgeS" depart="39" departLane="3" />

   <vType id="vehicleS_75" length="5.120000" accel="2.805000" decel="4.952000" sigma="0.5" minGap="2.486929" maxSpeed="131.531412" guiShape="passenger" />
   <vehicle id="straightS_75" type="vehicleS_75" route="edgeS_edgeN" depart="39" departLane="4" />

   <vType id="vehicleW_76" length="3.877000" accel="3.069000" decel="5.746000" sigma="0.5" minGap="2.486929" maxSpeed="131.531412" guiShape="passenger" />
   <vehicle id="leftW_76" type="vehicleW_76" route="edgeW_edgeN" depart="39" departLane="4" />

   <vType id="vehicleE_77" length="5.448000" accel="2.247000" decel="2.642000" sigma="0.5" minGap="2.486929" maxSpeed="131.531412" guiShape="passenger" />
   <vehicle id="leftE_77" type="vehicleE_77" route="edgeE_edgeS" depart="39" departLane="3" />

   <vType id="vehicleN_78" length="4.099000" accel="2.388000" decel="4.687000" sigma="0.5" minGap="2.486929" maxSpeed="131.531412" guiShape="passenger" />
   <vehicle id="straightN_78" type="vehicleN_78" route="edgeN_edgeS" depart="40" departLane="5" />

   <vType id="vehicleW_79" length="4.462000" accel="3.179000" decel="5.630000" sigma="0.5" minGap="2.486929" maxSpeed="131.531412" guiShape="passenger" />
   <vehicle id="straightW_79" type="vehicleW_79" route="edgeW_edgeE" depart="40" departLane="3" />

   <vType id="vehicleE_80" length="5.461000" accel="2.359000" decel="2.625000" sigma="0.5" minGap="2.486929" maxSpeed="131.531412" guiShape="passenger" />
   <vehicle id="rightE_80" type="vehicleE_80" route="edgeE_edgeN" depart="40" departLane="1" />

   <vType id="vehicleW_81" length="4.176000" accel="3.156000" decel="5.203000" sigma="0.5" minGap="2.486929" maxSpeed="131.531412" guiShape="passenger" />
   <vehicle id="uturnW_81" type="vehicleW_81" route="edgeW_edgeW" depart="41" departLane="4" />

   <vType id="vehicleE_82" length="4.349000" accel="3.308000" decel="5.123000" sigma="0.5" minGap="2.486929" maxSpeed="131.531412" guiShape="passenger" />
   <vehicle id="straightE_82" type="vehicleE_82" route="edgeE_edgeW" depart="41" departLane="3" />

   <vType id="vehicleS_83" length="4.465000" accel="3.014000" decel="3.636000" sigma="0.5" minGap="2.486929" maxSpeed="131.531412" guiShape="passenger" />
   <vehicle id="straightS_83" type="vehicleS_83" route="edgeS_edgeN" depart="42" departLane="4" />

   <vType id="vehicleE_84" length="4.909000" accel="3.546000" decel="4.809000" sigma="0.5" minGap="2.486929" maxSpeed="131.531412" guiShape="passenger" />
   <vehicle id="uturnE_84" type="vehicleE_84" route="edgeE_edgeE" depart="42" departLane="4" />

   <vType id="vehicleE_85" length="4.746000" accel="2.977000" decel="3.938000" sigma="0.5" minGap="2.486929" maxSpeed="131.531412" guiShape="passenger" />
   <vehicle id="rightE_85" type="vehicleE_85" route="edgeE_edgeN" depart="43" departLane="1" />

   <vType id="vehicleS_86" length="4.311000" accel="2.923000" decel="4.947000" sigma="0.5" minGap="2.486929" maxSpeed="131.531412" guiShape="passenger" />
   <vehicle id="uturnS_86" type="vehicleS_86" route="edgeS_edgeS" depart="44" departLane="5" />

   <vType id="vehicleS_87" length="4.661000" accel="2.765000" decel="3.370000" sigma="0.5" minGap="2.486929" maxSpeed="131.531412" guiShape="passenger" />
   <vehicle id="straightS_87" type="vehicleS_87" route="edgeS_edgeN" depart="45" departLane="3" />

   <vType id="vehicleS_88" length="3.988000" accel="3.367000" decel="4.108000" sigma="0.5" minGap="2.486929" maxSpeed="131.531412" guiShape="passenger" />
   <vehicle id="uturnS_88" type="vehicleS_88" route="edgeS_edgeS" depart="46" departLane="5" />

   <vType id="vehicleS_89" length="4.000000" accel="2.546000" decel="4.759000" sigma="0.5" minGap="2.486929" maxSpeed="131.531412" guiShape="passenger" />
   <vehicle id="rightS_89" type="vehicleS_89" route="edgeS_edgeE" depart="47" departLane="1" />

   <vType id="vehicleE_90" length="4.420000" accel="3.822000" decel="4.306000" sigma="0.5" minGap="2.486929" maxSpeed="131.531412" guiShape="passenger" />
   <vehicle id="straightE_90" type="vehicleE_90" route="edgeE_edgeW" depart="47" departLane="2" />

   <vType id="vehicleS_91" length="4.046000" accel="2.498000" decel="2.926000" sigma="0.5" minGap="2.486929" maxSpeed="131.531412" guiShape="passenger" />
   <vehicle id="straightS_91" type="vehicleS_91" route="edgeS_edgeN" depart="48" departLane="5" />

   <vType id="vehicleN_92" length="4.307000" accel="3.152000" decel="4.978000" sigma="0.5" minGap="2.486929" maxSpeed="131.531412" guiShape="passenger" />
   <vehicle id="straightN_92" type="vehicleN_92" route="edgeN_edgeS" depart="49" departLane="5" />

   <vType id="vehicleS_93" length="4.169000" accel="2.555000" decel="3.118000" sigma="0.5" minGap="2.486929" maxSpeed="131.531412" guiShape="passenger" />
   <vehicle id="straightS_93" type="vehicleS_93" route="edgeS_edgeN" depart="49" departLane="1" />

   <vType id="vehicleE_94" length="3.935000" accel="2.662000" decel="5.567000" sigma="0.5" minGap="2.486929" maxSpeed="131.531412" guiShape="passenger" />
   <vehicle id="leftE_94" type="vehicleE_94" route="edgeE_edgeS" depart="49" departLane="4" />

   <vType id="vehicleN_95" length="4.321000" accel="2.969000" decel="3.634000" sigma="0.5" minGap="2.486929" maxSpeed="131.531412" guiShape="passenger" />
   <vehicle id="leftN_95" type="vehicleN_95" route="edgeN_edgeE" depart="50" departLane="5" />

   <vType id="vehicleS_96" length="4.035000" accel="2.288000" decel="4.118000" sigma="0.5" minGap="2.486929" maxSpeed="131.531412" guiShape="passenger" />
   <vehicle id="rightS_96" type="vehicleS_96" route="edgeS_edgeE" depart="50" departLane="1" />

   <vType id="vehicleW_97" length="5.434000" accel="2.321000" decel="3.338000" sigma="0.5" minGap="2.486929" maxSpeed="131.531412" guiShape="passenger" />
   <vehicle id="rightW_97" type="vehicleW_97" route="edgeW_edgeS" depart="50" departLane="1" />

   <vType id="vehicleS_98" length="4.599000" accel="2.910000" decel="5.298000" sigma="0.5" minGap="2.486929" maxSpeed="131.531412" guiShape="passenger" />
   <vehicle id="straightS_98" type="vehicleS_98" route="edgeS_edgeN" depart="51" departLane="4" />

   <vType id="vehicleW_99" length="4.866000" accel="3.400000" decel="5.578000" sigma="0.5" minGap="2.486929" maxSpeed="131.531412" guiShape="passenger" />
   <vehicle id="straightW_99" type="vehicleW_99" route="edgeW_edgeE" depart="51" departLane="1" />

   <vType id="vehicleS_100" length="4.769000" accel="2.438000" decel="3.851000" sigma="0.5" minGap="2.486929" maxSpeed="131.531412" guiShape="passenger" />
   <vehicle id="straightS_100" type="vehicleS_100" route="edgeS_edgeN" depart="52" departLane="5" />

   <vType id="vehicleW_101" length="4.327000" accel="2.646000" decel="5.296000" sigma="0.5" minGap="2.486929" maxSpeed="131.531412" guiShape="passenger" />
   <vehicle id="leftW_101" type="vehicleW_101" route="edgeW_edgeN" depart="52" departLane="3" />

   <vType id="vehicleS_102" length="4.929000" accel="3.677000" decel="5.191000" sigma="0.5" minGap="2.486929" maxSpeed="131.531412" guiShape="passenger" />
   <vehicle id="straightS_102" type="vehicleS_102" route="edgeS_edgeN" depart="54" departLane="1" />

   <vType id="vehicleW_103" length="4.841000" accel="3.538000" decel="5.494000" sigma="0.5" minGap="2.486929" maxSpeed="131.531412" guiShape="passenger" />
   <vehicle id="rightW_103" type="vehicleW_103" route="edgeW_edgeS" depart="54" departLane="1" />

   <vType id="vehicleE_104" length="5.017000" accel="3.733000" decel="4.146000" sigma="0.5" minGap="2.486929" maxSpeed="131.531412" guiShape="passenger" />
   <vehicle id="straightE_104" type="vehicleE_104" route="edgeE_edgeW" depart="54" departLane="2" />

   <vType id="vehicleS_105" length="4.974000" accel="3.598000" decel="4.424000" sigma="0.5" minGap="2.486929" maxSpeed="131.531412" guiShape="passenger" />
   <vehicle id="straightS_105" type="vehicleS_105" route="edgeS_edgeN" depart="56" departLane="1" />

   <vType id="vehicleS_106" length="4.632000" accel="3.254000" decel="5.477000" sigma="0.5" minGap="2.486929" maxSpeed="131.531412" guiShape="passenger" />
   <vehicle id="rightS_106" type="vehicleS_106" route="edgeS_edgeE" depart="57" departLane="1" />

   <vType id="vehicleE_107" length="5.468000" accel="2.955000" decel="3.851000" sigma="0.5" minGap="2.486929" maxSpeed="131.531412" guiShape="passenger" />
   <vehicle id="rightE_107" type="vehicleE_107" route="edgeE_edgeN" depart="57" departLane="1" />

   <vType id="vehicleW_108" length="4.327000" accel="3.737000" decel="5.149000" sigma="0.5" minGap="2.486929" maxSpeed="131.531412" guiShape="passenger" />
   <vehicle id="straightW_108" type="vehicleW_108" route="edgeW_edgeE" depart="58" departLane="3" />

   <vType id="vehicleE_109" length="4.267000" accel="2.371000" decel="5.017000" sigma="0.5" minGap="2.486929" maxSpeed="131.531412" guiShape="passenger" />