<routes>
   <personFlow id="pRegN" begin="0" end="3000" personsPerHour="682.779039">
        <walk edges="edgeN_O edgeS_I" speed="1.604107"/>
    </personFlow>
   <personFlow id="pRegS" begin="0" end="3000" personsPerHour="279.596894">
        <walk edges="edgeS_O edgeN_I" speed="1.395288"/>
    </personFlow>
   <personFlow id="pRegW" begin="0" end="3000" personsPerHour="646.337535">
        <walk edges="edgeW_O edgeE_I" speed="1.394754"/>
    </personFlow>
   <personFlow id="pRegE" begin="0" end="3000" personsPerHour="981.258848">
        <walk edges="edgeE_O edgeW_I" speed="1.849640"/>
    </personFlow>
   <personFlow id="pOppN" begin="0" end="3000" personsPerHour="591.900724" departPos="600.000000">
        <walk edges="edgeN_I edgeS_O" speed="1.712469"/>
    </personFlow>
   <personFlow id="pOppS" begin="0" end="3000" personsPerHour="693.105069" departPos="700.000000">
        <walk edges="edgeS_I edgeN_O" speed="1.600368"/>
    </personFlow>
   <personFlow id="pOppW" begin="0" end="3000" personsPerHour="282.680981" departPos="400.000000">
        <walk edges="edgeW_I edgeE_O" speed="1.478205"/>
    </personFlow>
   <personFlow id="pOppE" begin="0" end="3000" personsPerHour="547.119473" departPos="400.000000">
        <walk edges="edgeE_I edgeW_O" speed="1.330427"/>
    </personFlow>

    <route id="edgeN_edgeN" edges="edgeN_O edgeN_I" />
    <route id="edgeN_edgeS" edges="edgeN_O edgeS_I" />
    <route id="edgeN_edgeW" edges="edgeN_O edgeW_I" />
    <route id="edgeN_edgeE" edges="edgeN_O edgeE_I" />
    <route id="edgeS_edgeN" edges="edgeS_O edgeN_I" />
    <route id="edgeS_edgeS" edges="edgeS_O edgeS_I" />
    <route id="edgeS_edgeW" edges="edgeS_O edgeW_I" />
    <route id="edgeS_edgeE" edges="edgeS_O edgeE_I" />
    <route id="edgeW_edgeN" edges="edgeW_O edgeN_I" />
    <route id="edgeW_edgeS" edges="edgeW_O edgeS_I" />
    <route id="edgeW_edgeW" edges="edgeW_O edgeW_I" />
    <route id="edgeW_edgeE" edges="edgeW_O edgeE_I" />
    <route id="edgeE_edgeN" edges="edgeE_O edgeN_I" />
    <route id="edgeE_edgeS" edges="edgeE_O edgeS_I" />
    <route id="edgeE_edgeW" edges="edgeE_O edgeW_I" />
    <route id="edgeE_edgeE" edges="edgeE_O edgeE_I" />
    
   <vType id="vehicleS_0" length="4.340000" accel="3.426000" decel="4.748000" sigma="0.5" minGap="2.351827" maxSpeed="148.054462" guiShape="passenger" />
   <vehicle id="straightS_0" type="vehicleS_0" route="edgeS_edgeN" depart="0" departLane="4" />

   <vType id="vehicleW_1" length="4.011000" accel="2.463000" decel="4.196000" sigma="0.5" minGap="2.351827" maxSpeed="148.054462" guiShape="passenger" />
   <vehicle id="straightW_1" type="vehicleW_1" route="edgeW_edgeE" depart="0" departLane="1" />

   <vType id="vehicleN_2" length="5.249000" accel="2.353000" decel="3.930000" sigma="0.5" minGap="2.351827" maxSpeed="148.054462" guiShape="passenger" />
   <vehicle id="rightN_2" type="vehicleN_2" route="edgeN_edgeW" depart="2" departLane="2" />

   <vType id="vehicleS_3" length="4.532000" accel="2.229000" decel="2.881000" sigma="0.5" minGap="2.351827" maxSpeed="148.054462" guiShape="passenger" />
   <vehicle id="rightS_3" type="vehicleS_3" route="edgeS_edgeE" depart="2" departLane="2" />

   <vType id="vehicleE_4" length="5.369000" accel="3.207000" decel="5.344000" sigma="0.5" minGap="2.351827" maxSpeed="148.054462" guiShape="passenger" />
   <vehicle id="straightE_4" type="vehicleE_4" route="edgeE_edgeW" depart="3" departLane="1" />

   <vType id="vehicleS_5" length="4.452000" accel="2.204000" decel="3.319000" sigma="0.5" minGap="2.351827" maxSpeed="148.054462" guiShape="passenger" />
   <vehicle id="straightS_5" type="vehicleS_5" route="edgeS_edgeN" depart="4" departLane="2" />

   <vType id="vehicleS_6" length="5.099000" accel="3.362000" decel="4.770000" sigma="0.5" minGap="2.351827" maxSpeed="148.054462" guiShape="passenger" />
   <vehicle id="straightS_6" type="vehicleS_6" route="edgeS_edgeN" depart="5" departLane="2" />

   <vType id="vehicleE_7" length="4.238000" accel="2.762000" decel="5.755000" sigma="0.5" minGap="2.351827" maxSpeed="148.054462" guiShape="passenger" />
   <vehicle id="straightE_7" type="vehicleE_7" route="edgeE_edgeW" depart="5" departLane="1" />

   <vType id="vehicleE_8" length="4.496000" accel="2.554000" decel="3.249000" sigma="0.5" minGap="2.351827" maxSpeed="148.054462" guiShape="passenger" />
   <vehicle id="straightE_8" type="vehicleE_8" route="edgeE_edgeW" depart="6" departLane="2" />

   <vType id="vehicleN_9" length="5.463000" accel="3.252000" decel="3.030000" sigma="0.5" minGap="2.351827" maxSpeed="148.054462" guiShape="passenger" />
   <vehicle id="straightN_9" type="vehicleN_9" route="edgeN_edgeS" depart="7" departLane="2" />

   <vType id="vehicleS_10" length="4.407000" accel="3.144000" decel="5.460000" sigma="0.5" minGap="2.351827" maxSpeed="148.054462" guiShape="passenger" />
   <vehicle id="straightS_10" type="vehicleS_10" route="edgeS_edgeN" depart="7" departLane="3" />

   <vType id="vehicleN_11" length="5.244000" accel="3.658000" decel="3.062000" sigma="0.5" minGap="2.351827" maxSpeed="148.054462" guiShape="passenger" />
   <vehicle id="straightN_11" type="vehicleN_11" route="edgeN_edgeS" depart="8" departLane="2" />

   <vType id="vehicleE_12" length="5.652000" accel="3.041000" decel="5.696000" sigma="0.5" minGap="2.351827" maxSpeed="148.054462" guiShape="passenger" />
   <vehicle id="straightE_12" type="vehicleE_12" route="edgeE_edgeW" depart="8" departLane="1" />

   <vType id="vehicleS_13" length="5.236000" accel="3.486000" decel="3.665000" sigma="0.5" minGap="2.351827" maxSpeed="148.054462" guiShape="passenger" />
   <vehicle id="rightS_13" type="vehicleS_13" route="edgeS_edgeE" depart="9" departLane="2" />

   <vType id="vehicleW_14" length="4.264000" accel="3.754000" decel="5.372000" sigma="0.5" minGap="2.351827" maxSpeed="148.054462" guiShape="passenger" />
   <vehicle id="straightW_14" type="vehicleW_14" route="edgeW_edgeE" depart="10" departLane="2" />

   <vType id="vehicleS_15" length="4.235000" accel="3.830000" decel="5.539000" sigma="0.5" minGap="2.351827" maxSpeed="148.054462" guiShape="passenger" />
   <vehicle id="straightS_15" type="vehicleS_15" route="edgeS_edgeN" depart="11" departLane="2" />

   <vType id="vehicleN_16" length="5.634000" accel="3.557000" decel="3.340000" sigma="0.5" minGap="2.351827" maxSpeed="148.054462" guiShape="passenger" />
   <vehicle id="straightN_16" type="vehicleN_16" route="edgeN_edgeS" depart="12" departLane="2" />

   <vType id="vehicleE_17" length="4.078000" accel="3.471000" decel="5.035000" sigma="0.5" minGap="2.351827" maxSpeed="148.054462" guiShape="passenger" />
   <vehicle id="straightE_17" type="vehicleE_17" route="edgeE_edgeW" depart="12" departLane="1" />

   <vType id="vehicleW_18" length="4.991000" accel="3.850000" decel="5.560000" sigma="0.5" minGap="2.351827" maxSpeed="148.054462" guiShape="passenger" />
   <vehicle id="straightW_18" type="vehicleW_18" route="edgeW_edgeE" depart="13" departLane="1" />

   <vType id="vehicleS_19" length="3.996000" accel="3.087000" decel="4.464000" sigma="0.5" minGap="2.351827" maxSpeed="148.054462" guiShape="passenger" />
   <vehicle id="leftS_19" type="vehicleS_19" route="edgeS_edgeW" depart="15" departLane="4" />

   <vType id="vehicleW_20" length="4.349000" accel="3.741000" decel="5.337000" sigma="0.5" minGap="2.351827" maxSpeed="148.054462" guiShape="passenger" />
   <vehicle id="straightW_20" type="vehicleW_20" route="edgeW_edgeE" depart="15" departLane="1" />

   <vType id="vehicleN_21" length="4.876000" accel="3.402000" decel="5.410000" sigma="0.5" minGap="2.351827" maxSpeed="148.054462" guiShape="passenger" />
   <vehicle id="straightN_21" type="vehicleN_21" route="edgeN_edgeS" depart="16" departLane="4" />

   <vType id="vehicleN_22" length="4.692000" accel="2.844000" decel="4.073000" sigma="0.5" minGap="2.351827" maxSpeed="148.054462" guiShape="passenger" />
   <vehicle id="leftN_22" type="vehicleN_22" route="edgeN_edgeE" depart="17" departLane="4" />

   <vType id="vehicleE_23" length="4.537000" accel="3.659000" decel="3.370000" sigma="0.5" minGap="2.351827" maxSpeed="148.054462" guiShape="passenger" />
   <vehicle id="straightE_23" type="vehicleE_23" route="edgeE_edgeW" depart="17" departLane="1" />

   <vType id="vehicleS_24" length="4.746000" accel="3.683000" decel="2.812000" sigma="0.5" minGap="2.351827" maxSpeed="148.054462" guiShape="passenger" />
   <vehicle id="straightS_24" type="vehicleS_24" route="edgeS_edgeN" depart="18" departLane="4" />

   <vType id="vehicleW_25" length="4.878000" accel="2.083000" decel="2.870000" sigma="0.5" minGap="2.351827" maxSpeed="148.054462" guiShape="passenger" />
   <vehicle id="straightW_25" type="vehicleW_25" route="edgeW_edgeE" depart="18" departLane="1" />

   <vType id="vehicleE_26" length="4.323000" accel="2.802000" decel="2.758000" sigma="0.5" minGap="2.351827" maxSpeed="148.054462" guiShape="passenger" />
   <vehicle id="straightE_26" type="vehicleE_26" route="edgeE_edgeW" depart="18" departLane="2" />

   <vType id="vehicleN_27" length="5.534000" accel="3.517000" decel="3.488000" sigma="0.5" minGap="2.351827" maxSpeed="148.054462" guiShape="passenger" />
   <vehicle id="straightN_27" type="vehicleN_27" route="edgeN_edgeS" depart="19" departLane="4" />

   <vType id="vehicleS_28" length="5.605000" accel="3.134000" decel="4.315000" sigma="0.5" minGap="2.351827" maxSpeed="148.054462" guiShape="passenger" />
   <vehicle id="straightS_28" type="vehicleS_28" route="edgeS_edgeN" depart="20" departLane="4" />

   <vType id="vehicleW_29" length="4.770000" accel="3.767000" decel="4.279000" sigma="0.5" minGap="2.351827" maxSpeed="148.054462" guiShape="passenger" />
   <vehicle id="straightW_29" type="vehicleW_29" route="edgeW_edgeE" depart="20" departLane="1" />

   <vType id="vehicleN_30" length="4.971000" accel="3.312000" decel="3.327000" sigma="0.5" minGap="2.351827" maxSpeed="148.054462" guiShape="passenger" />
   <vehicle id="straightN_30" type="vehicleN_30" route="edgeN_edgeS" depart="21" departLane="2" />

   <vType id="vehicleN_31" length="5.077000" accel="3.108000" decel="3.588000" sigma="0.5" minGap="2.351827" maxSpeed="148.054462" guiShape="passenger" />
   <vehicle id="leftN_31" type="vehicleN_31" route="edgeN_edgeE" depart="22" departLane="5" />

   <vType id="vehicleS_32" length="4.366000" accel="2.792000" decel="4.732000" sigma="0.5" minGap="2.351827" maxSpeed="148.054462" guiShape="passenger" />
   <vehicle id="straightS_32" type="vehicleS_32" route="edgeS_edgeN" depart="22" departLane="3" />

   <vType id="vehicleS_33" length="4.917000" accel="2.242000" decel="4.300000" sigma="0.5" minGap="2.351827" maxSpeed="148.054462" guiShape="passenger" />
   <vehicle id="straightS_33" type="vehicleS_33" route="edgeS_edgeN" depart="23" departLane="4" />

   <vType id="vehicleW_34" length="5.456000" accel="3.692000" decel="3.759000" sigma="0.5" minGap="2.351827" maxSpeed="148.054462" guiShape="passenger" />
   <vehicle id="straightW_34" type="vehicleW_34" route="edgeW_edgeE" depart="23" departLane="1" />

   <vType id="vehicleN_35" length="4.410000" accel="3.712000" decel="4.960000" sigma="0.5" minGap="2.351827" maxSpeed="148.054462" guiShape="passenger" />
   <vehicle id="rightN_35" type="vehicleN_35" route="edgeN_edgeW" depart="26" departLane="1" />

   <vType id="vehicleN_36" length="4.409000" accel="2.965000" decel="5.484000" sigma="0.5" minGap="2.351827" maxSpeed="148.054462" guiShape="passenger" />
   <vehicle id="straightN_36" type="vehicleN_36" route="edgeN_edgeS" depart="27" departLane="2" />

   <vType id="vehicleS_37" length="4.430000" accel="2.063000" decel="5.052000" sigma="0.5" minGap="2.351827" maxSpeed="148.054462" guiShape="passenger" />
   <vehicle id="straightS_37" type="vehicleS_37" route="edgeS_edgeN" depart="27" departLane="4" />

   <vType id="vehicleE_38" length="5.159000" accel="3.100000" decel="2.930000" sigma="0.5" minGap="2.351827" maxSpeed="148.054462" guiShape="passenger" />
   <vehicle id="straightE_38" type="vehicleE_38" route="edgeE_edgeW" depart="27" departLane="1" />

   <vType id="vehicleE_39" length="4.484000" accel="3.729000" decel="5.132000" sigma="0.5" minGap="2.351827" maxSpeed="148.054462" guiShape="passenger" />
   <vehicle id="straightE_39" type="vehicleE_39" route="edgeE_edgeW" depart="28" departLane="1" />

   <vType id="vehicleS_40" length="4.135000" accel="3.508000" decel="5.416000" sigma="0.5" minGap="2.351827" maxSpeed="148.054462" guiShape="passenger" />
   <vehicle id="straightS_40" type="vehicleS_40" route="edgeS_edgeN" depart="29" departLane="3" />

   <vType id="vehicleS_41" length="5.319000" accel="2.385000" decel="3.897000" sigma="0.5" minGap="2.351827" maxSpeed="148.054462" guiShape="passenger" />
   <vehicle id="straightS_41" type="vehicleS_41" route="edgeS_edgeN" depart="30" departLane="2" />

   <vType id="vehicleE_42" length="5.323000" accel="3.664000" decel="5.180000" sigma="0.5" minGap="2.351827" maxSpeed="148.054462" guiShape="passenger" />
   <vehicle id="straightE_42" type="vehicleE_42" route="edgeE_edgeW" depart="30" departLane="2" />

   <vType id="vehicleN_43" length="4.610000" accel="2.128000" decel="4.085000" sigma="0.5" minGap="2.351827" maxSpeed="148.054462" guiShape="passenger" />
   <vehicle id="straightN_43" type="vehicleN_43" route="edgeN_edgeS" depart="31" departLane="2" />

   <vType id="vehicleE_44" length="4.347000" accel="2.100000" decel="3.191000" sigma="0.5" minGap="2.351827" maxSpeed="148.054462" guiShape="passenger" />
   <vehicle id="straightE_44" type="vehicleE_44" route="edgeE_edgeW" depart="31" departLane="2" />

   <vType id="vehicleN_45" length="5.274000" accel="2.709000" decel="4.209000" sigma="0.5" minGap="2.351827" maxSpeed="148.054462" guiShape="passenger" />
   <vehicle id="leftN_45" type="vehicleN_45" route="edgeN_edgeE" depart="32" departLane="5" />

   <vType id="vehicleW_46" length="4.264000" accel="3.847000" decel="3.424000" sigma="0.5" minGap="2.351827" maxSpeed="148.054462" guiShape="passenger" />
   <vehicle id="straightW_46" type="vehicleW_46" route="edgeW_edgeE" depart="32" departLane="1" />

   <vType id="vehicleN_47" length="4.283000" accel="2.139000" decel="3.973000" sigma="0.5" minGap="2.351827" maxSpeed="148.054462" guiShape="passenger" />
   <vehicle id="rightN_47" type="vehicleN_47" route="edgeN_edgeW" depart="34" departLane="1" />

   <vType id="vehicleW_48" length="4.521000" accel="2.640000" decel="5.299000" sigma="0.5" minGap="2.351827" maxSpeed="148.054462" guiShape="passenger" />
   <vehicle id="straightW_48" type="vehicleW_48" route="edgeW_edgeE" depart="34" departLane="2" />

   <vType id="vehicleN_49" length="4.604000" accel="3.448000" decel="3.130000" sigma="0.5" minGap="2.351827" maxSpeed="148.054462" guiShape="passenger" />
   <vehicle id="straightN_49" type="vehicleN_49" route="edgeN_edgeS" depart="36" departLane="4" />

   <vType id="vehicleE_50" length="4.690000" accel="3.135000" decel="4.677000" sigma="0.5" minGap="2.351827" maxSpeed="148.054462" guiShape="passenger" />
   <vehicle id="straightE_50" type="vehicleE_50" route="edgeE_edgeW" depart="36" departLane="2" />

   <vType id="vehicleE_51" length="5.012000" accel="2.230000" decel="5.634000" sigma="0.5" minGap="2.351827" maxSpeed="148.054462" guiShape="passenger" />
   <vehicle id="straightE_51" type="vehicleE_51" route="edgeE_edgeW" depart="38" departLane="1" />

   <vType id="vehicleS_52" length="4.002000" accel="2.512000" decel="4.099000" sigma="0.5" minGap="2.351827" maxSpeed="148.054462" guiShape="passenger" />
   <vehicle id="straightS_52" type="vehicleS_52" route="edgeS_edgeN" depart="39" departLane="2" />

   <vType id="vehicleE_53" length="5.128000" accel="3.717000" decel="5.339000" sigma="0.5" minGap="2.351827" maxSpeed="148.054462" guiShape="passenger" />
   <vehicle id="straightE_53" type="vehicleE_53" route="edgeE_edgeW" depart="40" departLane="1" />

   <vType id="vehicleS_54" length="5.142000" accel="2.920000" decel="4.364000" sigma="0.5" minGap="2.351827" maxSpeed="148.054462" guiShape="passenger" />
   <vehicle id="straightS_54" type="vehicleS_54" route="edgeS_edgeN" depart="41" departLane="2" />

   <vType id="vehicleS_55" length="5.043000" accel="3.481000" decel="4.248000" sigma="0.5" minGap="2.351827" maxSpeed="148.054462" guiShape="passenger" />
   <vehicle id="straightS_55" type="vehicleS_55" route="edgeS_edgeN" depart="45" departLane="4" />

   <vType id="vehicleW_56" length="5.172000" accel="2.492000" decel="3.651000" sigma="0.5" minGap="2.351827" maxSpeed="148.054462" guiShape="passenger" />
   <vehicle id="straightW_56" type="vehicleW_56" route="edgeW_edgeE" depart="45" departLane="1" />

   <vType id="vehicleE_57" length="5.139000" accel="3.370000" decel="2.776000" sigma="0.5" minGap="2.351827" maxSpeed="148.054462" guiShape="passenger" />
   <vehicle id="straightE_57" type="vehicleE_57" route="edgeE_edgeW" depart="45" departLane="2" />

   <vType id="vehicleN_58" length="4.066000" accel="3.606000" decel="3.823000" sigma="0.5" minGap="2.351827" maxSpeed="148.054462" guiShape="passenger" />
   <vehicle id="straightN_58" type="vehicleN_58" route="edgeN_edgeS" depart="46" departLane="4" />

   <vType id="vehicleW_59" length="4.938000" accel="2.944000" decel="5.604000" sigma="0.5" minGap="2.351827" maxSpeed="148.054462" guiShape="passenger" />
   <vehicle id="straightW_59" type="vehicleW_59" route="edgeW_edgeE" depart="46" departLane="2" />

   <vType id="vehicleW_60" length="4.701000" accel="2.110000" decel="3.652000" sigma="0.5" minGap="2.351827" maxSpeed="148.054462" guiShape="passenger" />
   <vehicle id="straightW_60" type="vehicleW_60" route="edgeW_edgeE" depart="48" departLane="2" />

   <vType id="vehicleE_61" length="5.432000" accel="2.394000" decel="3.407000" sigma="0.5" minGap="2.351827" maxSpeed="148.054462" guiShape="passenger" />
   <vehicle id="straightE_61" type="vehicleE_61" route="edgeE_edgeW" depart="50" departLane="2" />

   <vType id="vehicleN_62" length="5.253000" accel="2.761000" decel="4.990000" sigma="0.5" minGap="2.351827" maxSpeed="148.054462" guiShape="passenger" />
   <vehicle id="straightN_62" type="vehicleN_62" route="edgeN_edgeS" depart="51" departLane="3" />

   <vType id="vehicleS_63" length="3.993000" accel="3.060000" decel="5.788000" sigma="0.5" minGap="2.351827" maxSpeed="148.054462" guiShape="passenger" />
   <vehicle id="leftS_63" type="vehicleS_63" route="edgeS_edgeW" depart="51" departLane="5" />

   <vType id="vehicleW_64" length="5.586000" accel="2.131000" decel="2.669000" sigma="0.5" minGap="2.351827" maxSpeed="148.054462" guiShape="passenger" />
   <vehicle id="straightW_64" type="vehicleW_64" route="edgeW_edgeE" depart="51" departLane="1" />

   <vType id="vehicleE_65" length="4.219000" accel="2.291000" decel="4.725000" sigma="0.5" minGap="2.351827" maxSpeed="148.054462" guiShape="passenger" />
   <vehicle id="straightE_65" type="vehicleE_65" route="edgeE_edgeW" depart="51" departLane="1" />

   <vType id="vehicleS_66" length="4.989000" accel="3.849000" decel="4.882000" sigma="0.5" minGap="2.351827" maxSpeed="148.054462" guiShape="passenger" />
   <vehicle id="straightS_66" type="vehicleS_66" route="edgeS_edgeN" depart="52" departLane="2" />

   <vType id="vehicleE_67" length="4.490000" accel="3.316000" decel="5.654000" sigma="0.5" minGap="2.351827" maxSpeed="148.054462" guiShape="passenger" />
   <vehicle id="straightE_67" type="vehicleE_67" route="edgeE_edgeW" depart="52" departLane="2" />

   <vType id="vehicleS_68" length="5.371000" accel="2.508000" decel="4.814000" sigma="0.5" minGap="2.351827" maxSpeed="148.054462" guiShape="passenger" />
   <vehicle id="straightS_68" type="vehicleS_68" route="edgeS_edgeN" depart="53" departLane="3" />

   <vType id="vehicleN_69" length="5.289000" accel="2.702000" decel="3.949000" sigma="0.5" minGap="2.351827" maxSpeed="148.054462" guiShape="passenger" />
   <vehicle id="rightN_69" type="vehicleN_69" route="edgeN_edgeW" depart="54" departLane="2" />

   <vType id="vehicleS_70" length="3.982000" accel="2.838000" decel="4.148000" sigma="0.5" minGap="2.351827" maxSpeed="148.054462" guiShape="passenger" />
   <vehicle id="straightS_70" type="vehicleS_70" route="edgeS_edgeN" depart="54" departLane="3" />

   <vType id="vehicleE_71" length="5.371000" accel="2.217000" decel="5.408000" sigma="0.5" minGap="2.351827" maxSpeed="148.054462" guiShape="passenger" />
   <vehicle id="straightE_71" type="vehicleE_71" route="edgeE_edgeW" depart="57" departLane="1" />

   <vType id="vehicleE_72" length="4.512000" accel="2.963000" decel="3.712000" sigma="0.5" minGap="2.351827" maxSpeed="148.054462" guiShape="passenger" />
   <vehicle id="straightE_72" type="vehicleE_72" route="edgeE_edgeW" depart="58" departLane="2" />

   <vType id="vehicleE_73" length="5.570000" accel="2.215000" decel="4.888000" sigma="0.5" minGap="2.351827" maxSpeed="148.054462" guiShape="passenger" />
   <vehicle id="straightE_73" type="vehicleE_73" route="edgeE_edgeW" depart="59" departLane="2" />

   <vType id="vehicleS_74" length="5.169000" accel="2.890000" decel="2.625000" sigma="0.5" minGap="2.351827" maxSpeed="148.054462" guiShape="passenger" />
   <vehicle id="straightS_74" type="vehicleS_74" route="edgeS_edgeN" depart="60" departLane="3" />

   <vType id="vehicleW_75" length="4.480000" accel="3.138000" decel="4.093000" sigma="0.5" minGap="2.351827" maxSpeed="148.054462" guiShape="passenger" />
   <vehicle id="straightW_75" type="vehicleW_75" route="edgeW_edgeE" depart="60" departLane="2" />

   <vType id="vehicleE_76" length="4.522000" accel="3.364000" decel="3.442000" sigma="0.5" minGap="2.351827" maxSpeed="148.054462" guiShape="passenger" />
   <vehicle id="straightE_76" type="vehicleE_76" route="edgeE_edgeW" depart="60" departLane="2" />

   <vType id="vehicleN_77" length="4.496000" accel="3.438000" decel="5.631000" sigma="0.5" minGap="2.351827" maxSpeed="148.054462" guiShape="passenger" />
   <vehicle id="straightN_77" type="vehicleN_77" route="edgeN_edgeS" depart="61" departLane="4" />

   <vType id="vehicleS_78" length="4.783000" accel="3.404000" decel="5.713000" sigma="0.5" minGap="2.351827" maxSpeed="148.054462" guiShape="passenger" />
   <vehicle id="straightS_78" type="vehicleS_78" route="edgeS_edgeN" depart="61" departLane="4" />

   <vType id="vehicleE_79" length="4.175000" accel="2.141000" decel="2.745000" sigma="0.5" minGap="2.351827" maxSpeed="148.054462" guiShape="passenger" />
   <vehicle id="straightE_79" type="vehicleE_79" route="edgeE_edgeW" depart="62" departLane="2" />

   <vType id="vehicleS_80" length="4.794000" accel="3.680000" decel="4.418000" sigma="0.5" minGap="2.351827" maxSpeed="148.054462" guiShape="passenger" />
   <vehicle id="rightS_80" type="vehicleS_80" route="edgeS_edgeE" depart="63" departLane="2" />

   <vType id="vehicleE_81" length="4.389000" accel="3.659000" decel="2.937000" sigma="0.5" minGap="2.351827" maxSpeed="148.054462" guiShape="passenger" />
   <vehicle id="straightE_81" type="vehicleE_81" route="edgeE_edgeW" depart="63" departLane="1" />

   <vType id="vehicleS_82" length="4.052000" accel="2.334000" decel="4.381000" sigma="0.5" minGap="2.351827" maxSpeed="148.054462" guiShape="passenger" />
   <vehicle id="straightS_82" type="vehicleS_82" route="edgeS_edgeN" depart="64" departLane="3" />

   <vType id="vehicleW_83" length="4.908000" accel="2.830000" decel="4.489000" sigma="0.5" minGap="2.351827" maxSpeed="148.054462" guiShape="passenger" />
   <vehicle id="straightW_83" type="vehicleW_83" route="edgeW_edgeE" depart="64" departLane="1" />

   <vType id="vehicleW_84" length="4.689000" accel="3.114000" decel="2.763000" sigma="0.5" minGap="2.351827" maxSpeed="148.054462" guiShape="passenger" />
   <vehicle id="straightW_84" type="vehicleW_84" route="edgeW_edgeE" depart="65" departLane="1" />

   <vType id="vehicleN_85" length="5.082000" accel="2.348000" decel="3.129000" sigma="0.5" minGap="2.351827" maxSpeed="148.054462" guiShape="passenger" />
   <vehicle id="straightN_85" type="vehicleN_85" route="edgeN_edgeS" depart="66" departLane="2" />

   <vType id="vehicleS_86" length="5.131000" accel="2.930000" decel="2.675000" sigma="0.5" minGap="2.351827" maxSpeed="148.054462" guiShape="passenger" />
   <vehicle id="straightS_86" type="vehicleS_86" route="edgeS_edgeN" depart="66" departLane="3" />

   <vType id="vehicleE_87" length="5.060000" accel="3.746000" decel="5.231000" sigma="0.5" minGap="2.351827" maxSpeed="148.054462" guiShape="passenger" />
   <vehicle id="straightE_87" type="vehicleE_87" route="edgeE_edgeW" depart="68" departLane="1" />

   <vType id="vehicleN_88" length="4.971000" accel="3.590000" decel="5.535000" sigma="0.5" minGap="2.351827" maxSpeed="148.054462" guiShape="passenger" />
   <vehicle id="straightN_88" type="vehicleN_88" route="edgeN_edgeS" depart="69" departLane="3" />

   <vType id="vehicleS_89" length="5.149000" accel="3.810000" decel="4.181000" sigma="0.5" minGap="2.351827" maxSpeed="148.054462" guiShape="passenger" />
   <vehicle id="straightS_89" type="vehicleS_89" route="edgeS_edgeN" depart="69" departLane="3" />

   <vType id="vehicleE_90" length="5.106000" accel="3.657000" decel="4.460000" sigma="0.5" minGap="2.351827" maxSpeed="148.054462" guiShape="passenger" />
   <vehicle id="straightE_90" type="vehicleE_90" route="edgeE_edgeW" depart="70" departLane="1" />

   <vType id="vehicleW_91" length="5.245000" accel="2.931000" decel="4.667000" sigma="0.5" minGap="2.351827" maxSpeed="148.054462" guiShape="passenger" />
   <vehicle id="straightW_91" type="vehicleW_91" route="edgeW_edgeE" depart="71" departLane="2" />

   <vType id="vehicleE_92" length="5.038000" accel="2.971000" decel="2.863000" sigma="0.5" minGap="2.351827" maxSpeed="148.054462" guiShape="passenger" />
   <vehicle id="straightE_92" type="vehicleE_92" route="edgeE_edgeW" depart="71" departLane="2" />

   <vType id="vehicleW_93" length="4.659000" accel="2.978000" decel="4.703000" sigma="0.5" minGap="2.351827" maxSpeed="148.054462" guiShape="passenger" />
   <vehicle id="straightW_93" type="vehicleW_93" route="edgeW_edgeE" depart="72" departLane="2" />

   <vType id="vehicleW_94" length="5.608000" accel="2.808000" decel="4.226000" sigma="0.5" minGap="2.351827" maxSpeed="148.054462" guiShape="passenger" />
   <vehicle id="straightW_94" type="vehicleW_94" route="edgeW_edgeE" depart="73" departLane="1" />

   <vType id="vehicleW_95" length="5.245000" accel="3.220000" decel="5.016000" sigma="0.5" minGap="2.351827" maxSpeed="148.054462" guiShape="passenger" />
   <vehicle id="straightW_95" type="vehicleW_95" route="edgeW_edgeE" depart="74" departLane="1" />

   <vType id="vehicleE_96" length="4.450000" accel="3.695000" decel="4.130000" sigma="0.5" minGap="2.351827" maxSpeed="148.054462" guiShape="passenger" />
   <vehicle id="straightE_96" type="vehicleE_96" route="edgeE_edgeW" depart="74" departLane="1" />

   <vType id="vehicleW_97" length="4.896000" accel="3.084000" decel="2.870000" sigma="0.5" minGap="2.351827" maxSpeed="148.054462" guiShape="passenger" />
   <vehicle id="straightW_97" type="vehicleW_97" route="edgeW_edgeE" depart="75" departLane="1" />

   <vType id="vehicleN_98" length="4.807000" accel="3.389000" decel="4.208000" sigma="0.5" minGap="2.351827" maxSpeed="148.054462" guiShape="passenger" />
   <vehicle id="rightN_98" type="vehicleN_98" route="edgeN_edgeW" depart="76" departLane="2" />

   <vType id="vehicleS_99" length="4.978000" accel="3.445000" decel="3.009000" sigma="0.5" minGap="2.351827" maxSpeed="148.054462" guiShape="passenger" />
   <vehicle id="straightS_99" type="vehicleS_99" route="edgeS_edgeN" depart="77" departLane="2" />

   <vType id="vehicleW_100" length="4.665000" accel="3.794000" decel="4.204000" sigma="0.5" minGap="2.351827" maxSpeed="148.054462" guiShape="passenger" />
   <vehicle id="straightW_100" type="vehicleW_100" route="edgeW_edgeE" depart="77" departLane="1" />

   <vType id="vehicleE_101" length="4.957000" accel="3.915000" decel="4.146000" sigma="0.5" minGap="2.351827" maxSpeed="148.054462" guiShape="passenger" />
   <vehicle id="straightE_101" type="vehicleE_101" route="edgeE_edgeW" depart="77" departLane="1" />

   <vType id="vehicleN_102" length="5.414000" accel="2.820000" decel="3.594000" sigma="0.5" minGap="2.351827" maxSpeed="148.054462" guiShape="passenger" />
   <vehicle id="straightN_102" type="vehicleN_102" route="edgeN_edgeS" depart="80" departLane="3" />

   <vType id="vehicleE_103" length="5.354000" accel="3.881000" decel="4.164000" sigma="0.5" minGap="2.351827" maxSpeed="148.054462" guiShape="passenger" />
   <vehicle id="straightE_103" type="vehicleE_103" route="edgeE_edgeW" depart="80" departLane="1" />

   <vType id="vehicleN_104" length="4.524000" accel="2.243000" decel="5.290000" sigma="0.5" minGap="2.351827" maxSpeed="148.054462" guiShape="passenger" />
   <vehicle id="rightN_104" type="vehicleN_104" route="edgeN_edgeW" depart="81" departLane="1" />

   <vType id="vehicleW_105" length="5.606000" accel="2.686000" decel="4.800000" sigma="0.5" minGap="2.351827" maxSpeed="148.054462" guiShape="passenger" />
   <vehicle id="straightW_105" type="vehicleW_105" route="edgeW_edgeE" depart="82" departLane="1" />

   <vType id="vehicleE_106" length="5.250000" accel="3.679000" decel="2.685000" sigma="0.5" minGap="2.351827" maxSpeed="148.054462" guiShape="passenger" />
   <vehicle id="straightE_106" type="vehicleE_106" route="edgeE_edgeW" depart="83" departLane="1" />

   <vType id="vehicleN_107" length="4.448000" accel="2.479000" decel="2.861000" sigma="0.5" minGap="2.351827" maxSpeed="148.054462" guiShape="passenger" />
   <vehicle id="straightN_107" type="vehicleN_107" route="edgeN_edgeS" depart="84" departLane="2" />

   <vType id="vehicleE_108" length="4.469000" accel="2.110000" decel="3.614000" sigma="0.5" minGap="2.351827" maxSpeed="148.054462" guiShape="passenger" />
   <vehicle id="straightE_108" type="vehicleE_108" route="edgeE_edgeW" depart="84" departLane="1" />
