<?xml version="1.0" encoding="UTF-8"?>

<!-- generated on 2021-10-23 05:39:52 by Eclipse SUMO netconvert Version 1.10.0
<configuration xmlns:xsi="http://www.w3.org/2001/XMLSchema-instance" xsi:noNamespaceSchemaLocation="http://sumo.dlr.de/xsd/netconvertConfiguration.xsd">

    <input>
        <node-files value="data1/cross.nod.xml"/>
        <edge-files value="data1/cross.edg.xml"/>
        <connection-files value="data1/cross.con.xml"/>
    </input>

    <output>
        <output-file value="data1/cross.net.xml"/>
    </output>

    <junctions>
        <no-turnarounds.except-turnlane value="true"/>
    </junctions>

    <report>
        <aggregate-warnings value="5"/>
    </report>

</configuration>
-->

<net version="1.9" junctionCornerDetail="5" limitTurnSpeed="5.50" xmlns:xsi="http://www.w3.org/2001/XMLSchema-instance" xsi:noNamespaceSchemaLocation="http://sumo.dlr.de/xsd/net_file.xsd">

    <location netOffset="500.00,300.00" convBoundary="0.00,0.00,1500.00,1300.00" origBoundary="-500.00,-300.00,1000.00,1000.00" projParameter="!"/>

    <edge id=":juncE_0" function="internal">
        <lane id=":juncE_0_0" index="0" disallow="pedestrian" speed="3.65" length="4.67" shape="1500.00,298.40 1501.20,299.20 1501.60,300.00 1501.20,300.80 1500.00,301.60"/>
    </edge>
    <edge id=":juncE_w0" function="walkingarea">
        <lane id=":juncE_w0_0" index="0" allow="pedestrian" speed="1.00" length="28.80" width="3.20" shape="1500.00,312.80 1500.00,316.00 1500.00,284.00 1500.00,287.20"/>
    </edge>
    <edge id=":juncMain_0" function="internal">
        <lane id=":juncMain_0_0" index="0" disallow="pedestrian" speed="6.86" length="5.34" shape="485.60,317.50 485.21,314.74 484.03,312.77 483.80,312.64"/>
        <lane id=":juncMain_0_1" index="1" disallow="pedestrian" speed="7.64" length="7.67" shape="485.60,317.50 485.21,313.34 484.03,310.38 483.80,310.17"/>
    </edge>
    <edge id=":juncMain_2" function="internal">
        <lane id=":juncMain_2_0" index="0" disallow="pedestrian" speed="15.02" length="35.00" shape="485.60,317.50 485.60,282.50"/>
        <lane id=":juncMain_2_1" index="1" disallow="pedestrian" speed="15.02" length="35.00" shape="488.80,317.50 488.80,282.50"/>
        <lane id=":juncMain_2_2" index="2" disallow="pedestrian" speed="15.02" length="35.00" shape="492.00,317.50 492.00,282.50"/>
        <lane id=":juncMain_2_3" index="3" disallow="pedestrian" speed="15.02" length="35.00" shape="495.20,317.50 495.20,282.50"/>
        <lane id=":juncMain_2_4" index="4" disallow="pedestrian" speed="15.02" length="35.00" shape="498.40,317.50 498.40,282.50"/>
    </edge>
    <edge id=":juncMain_7" function="internal">
        <lane id=":juncMain_7_0" index="0" disallow="pedestrian" speed="12.03" length="8.83" shape="498.40,317.50 499.79,309.14 500.00,308.85"/>
    </edge>
    <edge id=":juncMain_8" function="internal">
        <lane id=":juncMain_8_0" index="0" disallow="pedestrian" speed="3.65" length="2.34" shape="498.40,317.50 499.20,316.30 500.00,315.90"/>
    </edge>
    <edge id=":juncMain_34" function="internal">
        <lane id=":juncMain_34_0" index="0" disallow="pedestrian" speed="6.86" length="4.82" shape="483.80,312.64 482.06,311.59 479.30,311.20"/>
    </edge>
    <edge id=":juncMain_35" function="internal">
        <lane id=":juncMain_35_0" index="0" disallow="pedestrian" speed="7.64" length="5.17" shape="483.80,310.17 482.06,308.59 479.30,308.00"/>
    </edge>
    <edge id=":juncMain_36" function="internal">
        <lane id=":juncMain_36_0" index="0" disallow="pedestrian" speed="12.03" length="24.59" shape="500.00,308.85 503.97,303.17 510.94,299.59 520.70,298.40"/>
    </edge>
    <edge id=":juncMain_37" function="internal">
        <lane id=":juncMain_37_0" index="0" disallow="pedestrian" speed="3.65" length="2.34" shape="500.00,315.90 500.80,316.30 501.60,317.50"/>
    </edge>
    <edge id=":juncMain_9" function="internal">
        <lane id=":juncMain_9_0" index="0" disallow="pedestrian" speed="6.86" length="5.34" shape="520.70,311.20 517.94,311.59 515.98,312.77 515.84,313.00"/>
        <lane id=":juncMain_9_1" index="1" disallow="pedestrian" speed="7.64" length="7.67" shape="520.70,311.20 516.54,311.59 513.57,312.77 513.37,313.00"/>
    </edge>
    <edge id=":juncMain_11" function="internal">
        <lane id=":juncMain_11_0" index="0" disallow="pedestrian" speed="22.49" length="41.40" shape="520.70,311.20 479.30,311.20"/>
        <lane id=":juncMain_11_1" index="1" disallow="pedestrian" speed="22.49" length="41.40" shape="520.70,308.00 479.30,308.00"/>
        <lane id=":juncMain_11_2" index="2" disallow="pedestrian" speed="22.49" length="41.40" shape="520.70,304.80 479.30,304.80"/>
    </edge>
    <edge id=":juncMain_14" function="internal">
        <lane id=":juncMain_14_0" index="0" disallow="pedestrian" speed="12.47" length="20.81" shape="520.70,304.80 510.94,303.41 503.98,299.23 502.52,296.80"/>
        <lane id=":juncMain_14_1" index="1" disallow="pedestrian" speed="12.03" length="17.66" shape="520.70,301.60 510.94,300.41 503.98,296.83"/>
    </edge>
    <edge id=":juncMain_16" function="internal">
        <lane id=":juncMain_16_0" index="0" disallow="pedestrian" speed="3.65" length="2.34" shape="520.70,301.60 519.50,300.80 519.10,300.00"/>
    </edge>
    <edge id=":juncMain_38" function="internal">
        <lane id=":juncMain_38_0" index="0" disallow="pedestrian" speed="6.86" length="4.82" shape="515.84,313.00 514.79,314.74 514.40,317.50"/>
    </edge>
    <edge id=":juncMain_39" function="internal">
        <lane id=":juncMain_39_0" index="0" disallow="pedestrian" speed="7.64" length="5.17" shape="513.37,313.00 511.79,314.74 511.20,317.50"/>
    </edge>
    <edge id=":juncMain_40" function="internal">
        <lane id=":juncMain_40_0" index="0" disallow="pedestrian" speed="12.47" length="15.15" shape="502.52,296.80 499.79,292.26 498.40,282.50"/>
    </edge>
    <edge id=":juncMain_41" function="internal">
        <lane id=":juncMain_41_0" index="0" disallow="pedestrian" speed="12.03" length="15.76" shape="503.98,296.83 499.79,290.86 498.40,282.50"/>
    </edge>
    <edge id=":juncMain_42" function="internal">
        <lane id=":juncMain_42_0" index="0" disallow="pedestrian" speed="3.65" length="2.34" shape="519.10,300.00 519.50,299.20 520.70,298.40"/>
    </edge>
    <edge id=":juncMain_17" function="internal">
        <lane id=":juncMain_17_0" index="0" disallow="pedestrian" speed="6.86" length="5.34" shape="514.40,282.50 514.79,285.26 515.97,287.23 516.20,287.36"/>
        <lane id=":juncMain_17_1" index="1" disallow="pedestrian" speed="7.64" length="7.67" shape="514.40,282.50 514.79,286.66 515.97,289.62 516.20,289.83"/>
    </edge>
    <edge id=":juncMain_19" function="internal">
        <lane id=":juncMain_19_0" index="0" disallow="pedestrian" speed="15.02" length="35.00" shape="514.40,282.50 514.40,317.50"/>
        <lane id=":juncMain_19_1" index="1" disallow="pedestrian" speed="15.02" length="35.00" shape="511.20,282.50 511.20,317.50"/>
        <lane id=":juncMain_19_2" index="2" disallow="pedestrian" speed="15.02" length="35.00" shape="508.00,282.50 508.00,317.50"/>
        <lane id=":juncMain_19_3" index="3" disallow="pedestrian" speed="15.02" length="35.00" shape="504.80,282.50 504.80,317.50"/>
        <lane id=":juncMain_19_4" index="4" disallow="pedestrian" speed="15.02" length="35.00" shape="501.60,282.50 501.60,317.50"/>
    </edge>
    <edge id=":juncMain_24" function="internal">
        <lane id=":juncMain_24_0" index="0" disallow="pedestrian" speed="12.03" length="8.83" shape="501.60,282.50 500.21,290.86 500.00,291.15"/>
    </edge>
    <edge id=":juncMain_25" function="internal">
        <lane id=":juncMain_25_0" index="0" disallow="pedestrian" speed="3.65" length="2.34" shape="501.60,282.50 500.80,283.70 500.00,284.10"/>
    </edge>
    <edge id=":juncMain_43" function="internal">
        <lane id=":juncMain_43_0" index="0" disallow="pedestrian" speed="6.86" length="4.82" shape="516.20,287.36 517.94,288.41 520.70,288.80"/>
    </edge>
    <edge id=":juncMain_44" function="internal">
        <lane id=":juncMain_44_0" index="0" disallow="pedestrian" speed="7.64" length="5.17" shape="516.20,289.83 517.94,291.41 520.70,292.00"/>
    </edge>
    <edge id=":juncMain_45" function="internal">
        <lane id=":juncMain_45_0" index="0" disallow="pedestrian" speed="12.03" length="24.59" shape="500.00,291.15 496.03,296.83 489.06,300.41 479.30,301.60"/>
    </edge>
    <edge id=":juncMain_46" function="internal">
        <lane id=":juncMain_46_0" index="0" disallow="pedestrian" speed="3.65" length="2.34" shape="500.00,284.10 499.20,283.70 498.40,282.50"/>
    </edge>
    <edge id=":juncMain_26" function="internal">
        <lane id=":juncMain_26_0" index="0" disallow="pedestrian" speed="6.86" length="5.34" shape="479.30,288.80 482.06,288.41 484.02,287.23 484.16,287.00"/>
        <lane id=":juncMain_26_1" index="1" disallow="pedestrian" speed="7.64" length="7.67" shape="479.30,288.80 483.46,288.41 486.43,287.23 486.63,287.00"/>
    </edge>
    <edge id=":juncMain_28" function="internal">
        <lane id=":juncMain_28_0" index="0" disallow="pedestrian" speed="22.49" length="41.40" shape="479.30,288.80 520.70,288.80"/>
        <lane id=":juncMain_28_1" index="1" disallow="pedestrian" speed="22.49" length="41.40" shape="479.30,292.00 520.70,292.00"/>
        <lane id=":juncMain_28_2" index="2" disallow="pedestrian" speed="22.49" length="41.40" shape="479.30,295.20 520.70,295.20"/>
    </edge>
    <edge id=":juncMain_31" function="internal">
        <lane id=":juncMain_31_0" index="0" disallow="pedestrian" speed="12.47" length="20.81" shape="479.30,295.20 489.06,296.59 496.02,300.77 497.48,303.20"/>
        <lane id=":juncMain_31_1" index="1" disallow="pedestrian" speed="12.03" length="17.66" shape="479.30,298.40 489.06,299.59 496.02,303.17"/>
    </edge>
    <edge id=":juncMain_33" function="internal">
        <lane id=":juncMain_33_0" index="0" disallow="pedestrian" speed="3.65" length="2.34" shape="479.30,298.40 480.50,299.20 480.90,300.00"/>
    </edge>
    <edge id=":juncMain_47" function="internal">
        <lane id=":juncMain_47_0" index="0" disallow="pedestrian" speed="6.86" length="4.82" shape="484.16,287.00 485.21,285.26 485.60,282.50"/>
    </edge>
    <edge id=":juncMain_48" function="internal">
        <lane id=":juncMain_48_0" index="0" disallow="pedestrian" speed="7.64" length="5.17" shape="486.63,287.00 488.21,285.26 488.80,282.50"/>
    </edge>
    <edge id=":juncMain_49" function="internal">
        <lane id=":juncMain_49_0" index="0" disallow="pedestrian" speed="12.47" length="15.15" shape="497.48,303.20 500.21,307.74 501.60,317.50"/>
    </edge>
    <edge id=":juncMain_50" function="internal">
        <lane id=":juncMain_50_0" index="0" disallow="pedestrian" speed="12.03" length="15.76" shape="496.02,303.17 500.21,309.14 501.60,317.50"/>
    </edge>
    <edge id=":juncMain_51" function="internal">
        <lane id=":juncMain_51_0" index="0" disallow="pedestrian" speed="3.65" length="2.34" shape="480.90,300.00 480.50,300.80 479.30,301.60"/>
    </edge>
    <edge id=":juncMain_c0" function="crossing" crossingEdges="edgeN_I edgeN_O">
        <lane id=":juncMain_c0_0" index="0" allow="pedestrian" speed="1.00" length="32.00" width="4.50" shape="516.00,315.25 484.00,315.25"/>
    </edge>
    <edge id=":juncMain_c1" function="crossing" crossingEdges="edgeE_I edgeE_O">
        <lane id=":juncMain_c1_0" index="0" allow="pedestrian" speed="1.00" length="25.60" width="4.50" shape="518.45,287.20 518.45,312.80"/>
    </edge>
    <edge id=":juncMain_c2" function="crossing" crossingEdges="edgeS_I edgeS_O">
        <lane id=":juncMain_c2_0" index="0" allow="pedestrian" speed="1.00" length="32.00" width="4.50" shape="484.00,284.75 516.00,284.75"/>
    </edge>
    <edge id=":juncMain_c3" function="crossing" crossingEdges="edgeW_I edgeW_O">
        <lane id=":juncMain_c3_0" index="0" allow="pedestrian" speed="1.00" length="25.60" width="4.50" shape="481.55,312.80 481.55,287.20"/>
    </edge>
    <edge id=":juncMain_w0" function="walkingarea">
        <lane id=":juncMain_w0_0" index="0" allow="pedestrian" speed="1.00" length="3.82" width="4.50" shape="479.30,312.80 479.30,316.00 480.80,317.50 484.00,317.50 483.87,316.06 483.48,314.89 482.82,313.98 481.91,313.32 480.74,312.93"/>
    </edge>
    <edge id=":juncMain_w1" function="walkingarea">
        <lane id=":juncMain_w1_0" index="0" allow="pedestrian" speed="1.00" length="3.82" width="4.50" shape="516.00,317.50 519.20,317.50 520.70,316.00 520.70,312.80 519.26,312.93 518.09,313.32 517.17,313.98 516.52,314.89 516.13,316.06"/>
    </edge>
    <edge id=":juncMain_w2" function="walkingarea">
        <lane id=":juncMain_w2_0" index="0" allow="pedestrian" speed="1.00" length="3.82" width="4.50" shape="520.70,287.20 520.70,284.00 519.20,282.50 516.00,282.50 516.13,283.94 516.52,285.11 517.17,286.02 518.09,286.68 519.26,287.07"/>
    </edge>
    <edge id=":juncMain_w3" function="walkingarea">
        <lane id=":juncMain_w3_0" index="0" allow="pedestrian" speed="1.00" length="3.82" width="4.50" shape="484.00,282.50 480.80,282.50 479.30,284.00 479.30,287.20 480.74,287.07 481.91,286.68 482.82,286.02 483.48,285.11 483.87,283.94"/>
    </edge>
    <edge id=":juncN_0" function="internal">
        <lane id=":juncN_0_0" index="0" disallow="pedestrian" speed="3.65" length="4.67" shape="501.60,1300.00 500.80,1301.20 500.00,1301.60 499.20,1301.20 498.40,1300.00"/>
    </edge>
    <edge id=":juncN_w0" function="walkingarea">
        <lane id=":juncN_w0_0" index="0" allow="pedestrian" speed="1.00" length="35.20" width="3.20" shape="484.00,1300.00 480.80,1300.00 519.20,1300.00 516.00,1300.00"/>
    </edge>
    <edge id=":juncS_0" function="internal">
        <lane id=":juncS_0_0" index="0" disallow="pedestrian" speed="3.65" length="4.67" shape="498.40,0.00 499.20,-1.20 500.00,-1.60 500.80,-1.20 501.60,0.00"/>
    </edge>
    <edge id=":juncS_w0" function="walkingarea">
        <lane id=":juncS_w0_0" index="0" allow="pedestrian" speed="1.00" length="35.20" width="3.20" shape="516.00,0.00 519.20,0.00 480.80,0.00 484.00,0.00"/>
    </edge>
    <edge id=":juncW_0" function="internal">
        <lane id=":juncW_0_0" index="0" disallow="pedestrian" speed="3.65" length="4.67" shape="0.00,301.60 -1.20,300.80 -1.60,300.00 -1.20,299.20 0.00,298.40"/>
    </edge>
    <edge id=":juncW_w0" function="walkingarea">
        <lane id=":juncW_w0_0" index="0" allow="pedestrian" speed="1.00" length="28.80" width="3.20" shape="0.00,287.20 0.00,284.00 0.00,316.00 0.00,312.80"/>
    </edge>

    <edge id="edgeE_I" from="juncMain" to="juncE" priority="46">
        <lane id="edgeE_I_0" index="0" allow="pedestrian" speed="22.30" length="979.30" shape="520.70,285.60 1500.00,285.60"/>
        <lane id="edgeE_I_1" index="1" disallow="pedestrian" speed="22.30" length="979.30" shape="520.70,288.80 1500.00,288.80"/>
        <lane id="edgeE_I_2" index="2" disallow="pedestrian" speed="22.30" length="979.30" shape="520.70,292.00 1500.00,292.00"/>
        <lane id="edgeE_I_3" index="3" disallow="pedestrian" speed="22.30" length="979.30" shape="520.70,295.20 1500.00,295.20"/>
        <lane id="edgeE_I_4" index="4" disallow="pedestrian" speed="22.30" length="979.30" shape="520.70,298.40 1500.00,298.40"/>
    </edge>
    <edge id="edgeE_O" from="juncE" to="juncMain" priority="78">
        <lane id="edgeE_O_0" index="0" allow="pedestrian" speed="22.68" length="979.30" shape="1500.00,314.40 520.70,314.40"/>
        <lane id="edgeE_O_1" index="1" disallow="pedestrian" speed="22.68" length="979.30" shape="1500.00,311.20 520.70,311.20"/>
        <lane id="edgeE_O_2" index="2" disallow="pedestrian" speed="22.68" length="979.30" shape="1500.00,308.00 520.70,308.00"/>
        <lane id="edgeE_O_3" index="3" disallow="pedestrian" speed="22.68" length="979.30" shape="1500.00,304.80 520.70,304.80"/>
        <lane id="edgeE_O_4" index="4" disallow="pedestrian" speed="22.68" length="979.30" shape="1500.00,301.60 520.70,301.60"/>
    </edge>
    <edge id="edgeN_I" from="juncMain" to="juncN" priority="46">
        <lane id="edgeN_I_0" index="0" allow="pedestrian" speed="16.66" length="982.50" shape="517.60,317.50 517.60,1300.00"/>
        <lane id="edgeN_I_1" index="1" disallow="pedestrian" speed="16.66" length="982.50" shape="514.40,317.50 514.40,1300.00"/>
        <lane id="edgeN_I_2" index="2" disallow="pedestrian" speed="16.66" length="982.50" shape="511.20,317.50 511.20,1300.00"/>
        <lane id="edgeN_I_3" index="3" disallow="pedestrian" speed="16.66" length="982.50" shape="508.00,317.50 508.00,1300.00"/>
        <lane id="edgeN_I_4" index="4" disallow="pedestrian" speed="16.66" length="982.50" shape="504.80,317.50 504.80,1300.00"/>
        <lane id="edgeN_I_5" index="5" disallow="pedestrian" speed="16.66" length="982.50" shape="501.60,317.50 501.60,1300.00"/>
    </edge>
    <edge id="edgeN_O" from="juncN" to="juncMain" priority="78">
        <lane id="edgeN_O_0" index="0" allow="pedestrian" speed="13.37" length="982.50" shape="482.40,1300.00 482.40,317.50"/>
        <lane id="edgeN_O_1" index="1" disallow="pedestrian" speed="13.37" length="982.50" shape="485.60,1300.00 485.60,317.50"/>
        <lane id="edgeN_O_2" index="2" disallow="pedestrian" speed="13.37" length="982.50" shape="488.80,1300.00 488.80,317.50"/>
        <lane id="edgeN_O_3" index="3" disallow="pedestrian" speed="13.37" length="982.50" shape="492.00,1300.00 492.00,317.50"/>
        <lane id="edgeN_O_4" index="4" disallow="pedestrian" speed="13.37" length="982.50" shape="495.20,1300.00 495.20,317.50"/>
        <lane id="edgeN_O_5" index="5" disallow="pedestrian" speed="13.37" length="982.50" shape="498.40,1300.00 498.40,317.50"/>
    </edge>
    <edge id="edgeS_I" from="juncMain" to="juncS" priority="46">
        <lane id="edgeS_I_0" index="0" allow="pedestrian" speed="16.66" length="282.50" shape="482.40,282.50 482.40,0.00"/>
        <lane id="edgeS_I_1" index="1" disallow="pedestrian" speed="16.66" length="282.50" shape="485.60,282.50 485.60,0.00"/>
        <lane id="edgeS_I_2" index="2" disallow="pedestrian" speed="16.66" length="282.50" shape="488.80,282.50 488.80,0.00"/>
        <lane id="edgeS_I_3" index="3" disallow="pedestrian" speed="16.66" length="282.50" shape="492.00,282.50 492.00,0.00"/>
        <lane id="edgeS_I_4" index="4" disallow="pedestrian" speed="16.66" length="282.50" shape="495.20,282.50 495.20,0.00"/>
        <lane id="edgeS_I_5" index="5" disallow="pedestrian" speed="16.66" length="282.50" shape="498.40,282.50 498.40,0.00"/>
    </edge>
    <edge id="edgeS_O" from="juncS" to="juncMain" priority="78">
        <lane id="edgeS_O_0" index="0" allow="pedestrian" speed="13.37" length="282.50" shape="517.60,0.00 517.60,282.50"/>
        <lane id="edgeS_O_1" index="1" disallow="pedestrian" speed="13.37" length="282.50" shape="514.40,0.00 514.40,282.50"/>
        <lane id="edgeS_O_2" index="2" disallow="pedestrian" speed="13.37" length="282.50" shape="511.20,0.00 511.20,282.50"/>
        <lane id="edgeS_O_3" index="3" disallow="pedestrian" speed="13.37" length="282.50" shape="508.00,0.00 508.00,282.50"/>
        <lane id="edgeS_O_4" index="4" disallow="pedestrian" speed="13.37" length="282.50" shape="504.80,0.00 504.80,282.50"/>
        <lane id="edgeS_O_5" index="5" disallow="pedestrian" speed="13.37" length="282.50" shape="501.60,0.00 501.60,282.50"/>
    </edge>
    <edge id="edgeW_I" from="juncMain" to="juncW" priority="46">
        <lane id="edgeW_I_0" index="0" allow="pedestrian" speed="22.30" length="479.30" shape="479.30,314.40 0.00,314.40"/>
        <lane id="edgeW_I_1" index="1" disallow="pedestrian" speed="22.30" length="479.30" shape="479.30,311.20 0.00,311.20"/>
        <lane id="edgeW_I_2" index="2" disallow="pedestrian" speed="22.30" length="479.30" shape="479.30,308.00 0.00,308.00"/>
        <lane id="edgeW_I_3" index="3" disallow="pedestrian" speed="22.30" length="479.30" shape="479.30,304.80 0.00,304.80"/>
        <lane id="edgeW_I_4" index="4" disallow="pedestrian" speed="22.30" length="479.30" shape="479.30,301.60 0.00,301.60"/>
    </edge>
    <edge id="edgeW_O" from="juncW" to="juncMain" priority="78">
        <lane id="edgeW_O_0" index="0" allow="pedestrian" speed="22.68" length="479.30" shape="0.00,285.60 479.30,285.60"/>
        <lane id="edgeW_O_1" index="1" disallow="pedestrian" speed="22.68" length="479.30" shape="0.00,288.80 479.30,288.80"/>
        <lane id="edgeW_O_2" index="2" disallow="pedestrian" speed="22.68" length="479.30" shape="0.00,292.00 479.30,292.00"/>
        <lane id="edgeW_O_3" index="3" disallow="pedestrian" speed="22.68" length="479.30" shape="0.00,295.20 479.30,295.20"/>
        <lane id="edgeW_O_4" index="4" disallow="pedestrian" speed="22.68" length="479.30" shape="0.00,298.40 479.30,298.40"/>
    </edge>

    <tlLogic id="juncMain" type="static" programID="0" offset="0">
        <phase duration="30" state="rrrrrrrrrggGGGgrrrrrrrrrrrggGGGgrrGrGr"/>
        <phase duration="5"  state="rrrrrrrrrggGGGgrrrrrrrrrrrggGGGgrrrrrr"/>
        <phase duration="5"  state="rrrrrrrrryyyyyyrrrrrrrrrrryyyyyyrrrrrr"/>
        <phase duration="6"  state="rrrrrrrrrrrrrrrGGrrrrrrrrrrrrrrrGGrrrr"/>
        <phase duration="5"  state="rrrrrrrrrrrrrrryyrrrrrrrrrrrrrrryyrrrr"/>
        <phase duration="29" state="ggGGGGGggrrrrrrrrggGGGGGggrrrrrrrrrGrG"/>
        <phase duration="5"  state="ggGGGGGggrrrrrrrrggGGGGGggrrrrrrrrrrrr"/>
        <phase duration="5"  state="yyyyyyyyyrrrrrrrryyyyyyyyyrrrrrrrrrrrr"/>
    </tlLogic>

    <junction id="juncE" type="priority" x="1500.00" y="300.00" incLanes="edgeE_I_0 edgeE_I_1 edgeE_I_2 edgeE_I_3 edgeE_I_4" intLanes=":juncE_0_0" shape="1500.00,300.00 1500.00,284.00 1500.00,300.00">
        <request index="0" response="0" foes="0" cont="0"/>
    </junction>
    <junction id="juncMain" type="traffic_light" x="500.00" y="300.00" incLanes="edgeN_O_0 edgeN_O_1 edgeN_O_2 edgeN_O_3 edgeN_O_4 edgeN_O_5 edgeE_O_0 edgeE_O_1 edgeE_O_2 edgeE_O_3 edgeE_O_4 edgeS_O_0 edgeS_O_1 edgeS_O_2 edgeS_O_3 edgeS_O_4 edgeS_O_5 edgeW_O_0 edgeW_O_1 edgeW_O_2 edgeW_O_3 edgeW_O_4 :juncMain_w1_0 :juncMain_w2_0 :juncMain_w3_0 :juncMain_w0_0" intLanes=":juncMain_34_0 :juncMain_35_0 :juncMain_2_0 :juncMain_2_1 :juncMain_2_2 :juncMain_2_3 :juncMain_2_4 :juncMain_36_0 :juncMain_37_0 :juncMain_38_0 :juncMain_39_0 :juncMain_11_0 :juncMain_11_1 :juncMain_11_2 :juncMain_40_0 :juncMain_41_0 :juncMain_42_0 :juncMain_43_0 :juncMain_44_0 :juncMain_19_0 :juncMain_19_1 :juncMain_19_2 :juncMain_19_3 :juncMain_19_4 :juncMain_45_0 :juncMain_46_0 :juncMain_47_0 :juncMain_48_0 :juncMain_28_0 :juncMain_28_1 :juncMain_28_2 :juncMain_49_0 :juncMain_50_0 :juncMain_51_0 :juncMain_c0_0 :juncMain_c1_0 :juncMain_c2_0 :juncMain_c3_0" shape="480.80,317.50 519.20,317.50 519.37,316.67 519.58,316.38 519.87,316.17 520.24,316.04 520.70,316.00 520.70,284.00 519.87,283.83 519.58,283.62 519.37,283.33 519.24,282.96 519.20,282.50 480.80,282.50 480.63,283.33 480.42,283.62 480.13,283.83 479.76,283.96 479.30,284.00 479.30,316.00 480.13,316.17 480.42,316.38 480.63,316.67 480.76,317.04">
        <request index="0"  response="10010000000000000000000011100000000000" foes="10010000000000000000000011100000000000" cont="1"/>
        <request index="1"  response="10010000000000000000000011100000000000" foes="10010000000000000000000011100000000000" cont="1"/>
        <request index="2"  response="01010111111100000000001111100000000000" foes="01010111111111000000001111100000000000" cont="0"/>
        <request index="3"  response="01010111111100000000001111100000000000" foes="01010111111111000000001111100000000000" cont="0"/>
        <request index="4"  response="01010111111100000000001111100000000000" foes="01010111111111000000001111100000000000" cont="0"/>
        <request index="5"  response="01010111111100000000001111100000000000" foes="01010111111111000000001111100000000000" cont="0"/>
        <request index="6"  response="01010111111100000000001111100000000000" foes="01010111111111000000001111100000000000" cont="0"/>
        <request index="7"  response="00110110000000111110001111100000000000" foes="00110110000000111110011111100000000000" cont="1"/>
        <request index="8"  response="00010110000000111110000000000000000000" foes="00010110000000111110000000000000000000" cont="1"/>
        <request index="9"  response="00110000000000000000000000000000000000" foes="00110000000000111110000000000000000000" cont="1"/>
        <request index="10" response="00110000000000000000000000000000000000" foes="00110000000000111110000000000000000000" cont="1"/>
        <request index="11" response="10100000000000000000000000000010000011" foes="10100110000000111110000000000011111111" cont="0"/>
        <request index="12" response="10100000000000000000000000000010000011" foes="10100110000000111110000000000011111111" cont="0"/>
        <request index="13" response="10100000000000000000000000000010000011" foes="10100110000000111110000000000011111111" cont="0"/>
        <request index="14" response="01100001110001000000001000000010000000" foes="01100001110011111110001000000011111100" cont="1"/>
        <request index="15" response="01100001110001000000000000000010000000" foes="01100001110011111110000100000011111100" cont="1"/>
        <request index="16" response="00100000000000000000000000000010000000" foes="00100000000000000000000000000010000000" cont="1"/>
        <request index="17" response="01100001110000000000000000000000000000" foes="01100001110000000000000000000000000000" cont="1"/>
        <request index="18" response="01100001110000000000000000000000000000" foes="01100001110000000000000000000000000000" cont="1"/>
        <request index="19" response="01010111110000000000001111111000000000" foes="01010111110000000000001111111110000000" cont="0"/>
        <request index="20" response="01010111110000000000001111111000000000" foes="01010111110000000000001111111110000000" cont="0"/>
        <request index="21" response="01010111110000000000001111111000000000" foes="01010111110000000000001111111110000000" cont="0"/>
        <request index="22" response="01010111110000000000001111111000000000" foes="01010111110000000000001111111110000000" cont="0"/>
        <request index="23" response="01010111110000000000001111111000000000" foes="01010111110000000000001111111110000000" cont="0"/>
        <request index="24" response="11000111110000000000001100000001111100" foes="11001111110000000000001100000001111100" cont="1"/>
        <request index="25" response="01000000000000000000001100000001111100" foes="01000000000000000000001100000001111100" cont="1"/>
        <request index="26" response="11000000000000000000000000000000000000" foes="11000000000000000000000000000001111100" cont="1"/>
        <request index="27" response="11000000000000000000000000000000000000" foes="11000000000000000000000000000001111100" cont="1"/>
        <request index="28" response="10100000000001000001100000000000000000" foes="10100000000001111111101100000001111100" cont="0"/>
        <request index="29" response="10100000000001000001100000000000000000" foes="10100000000001111111101100000001111100" cont="0"/>
        <request index="30" response="10100000000001000001100000000000000000" foes="10100000000001111111101100000001111100" cont="0"/>
        <request index="31" response="10010100000001000000000011100010000000" foes="10010100000001111110000011100111111100" cont="1"/>
        <request index="32" response="10010000000001000000000011100010000000" foes="10010010000001111110000011100111111100" cont="1"/>
        <request index="33" response="10000000000001000000000000000000000000" foes="10000000000001000000000000000000000000" cont="1"/>
        <request index="34" response="00000000000000000000000000000000000000" foes="00000110000000111110000000011111111111" cont="0"/>
        <request index="35" response="00000000000000000000000000000000000000" foes="00000001110000000001111111111010000000" cont="0"/>
        <request index="36" response="00000000000000000000000000000000000000" foes="00000000001111111111101100000001111100" cont="0"/>
        <request index="37" response="00000000000000000000000000000000000000" foes="00001111111101000000000011100000000011" cont="0"/>
    </junction>
    <junction id="juncN" type="priority" x="500.00" y="1300.00" incLanes="edgeN_I_0 edgeN_I_1 edgeN_I_2 edgeN_I_3 edgeN_I_4 edgeN_I_5" intLanes=":juncN_0_0" shape="500.00,1300.00 519.20,1300.00 500.00,1300.00">
        <request index="0" response="0" foes="0" cont="0"/>
    </junction>
    <junction id="juncS" type="priority" x="500.00" y="0.00" incLanes="edgeS_I_0 edgeS_I_1 edgeS_I_2 edgeS_I_3 edgeS_I_4 edgeS_I_5" intLanes=":juncS_0_0" shape="500.00,0.00 480.80,0.00 500.00,0.00">
        <request index="0" response="0" foes="0" cont="0"/>
    </junction>
    <junction id="juncW" type="priority" x="0.00" y="300.00" incLanes="edgeW_I_0 edgeW_I_1 edgeW_I_2 edgeW_I_3 edgeW_I_4" intLanes=":juncW_0_0" shape="0.00,300.00 0.00,316.00 0.00,300.00">
        <request index="0" response="0" foes="0" cont="0"/>
    </junction>

    <junction id=":juncMain_34_0" type="internal" x="483.80" y="312.64" incLanes=":juncMain_0_0" intLanes=":juncMain_11_0 :juncMain_11_1 :juncMain_11_2 :juncMain_24_0 :juncMain_33_0 :juncMain_c0_0 :juncMain_c3_0"/>
    <junction id=":juncMain_35_0" type="internal" x="483.80" y="310.17" incLanes=":juncMain_0_1" intLanes=":juncMain_11_0 :juncMain_11_1 :juncMain_11_2 :juncMain_24_0 :juncMain_33_0 :juncMain_c0_0 :juncMain_c3_0"/>
    <junction id=":juncMain_36_0" type="internal" x="500.00" y="308.85" incLanes=":juncMain_7_0 edgeS_O_1 edgeS_O_2 edgeS_O_3 edgeS_O_4 edgeS_O_5" intLanes=":juncMain_11_0 :juncMain_11_1 :juncMain_11_2 :juncMain_14_0 :juncMain_14_1 :juncMain_16_0 :juncMain_17_0 :juncMain_17_1 :juncMain_19_0 :juncMain_19_1 :juncMain_19_2 :juncMain_19_3 :juncMain_19_4 :juncMain_28_0 :juncMain_28_1 :juncMain_28_2 :juncMain_31_0 :juncMain_31_1 :juncMain_c0_0 :juncMain_c1_0"/>