<additional>
   <tlLogic id="juncMain" type="static" programID="1" offset="0">
       <phase duration="44.891211" state="ggGGGGGggrrrrrrrrggGGGGGggrrrrrrrrrGrG"/>
       <phase duration="4.306090" state="yyyyyyyyyrrrrrrrryyyyyyyyyrrrrrrrrrGrG"/>
       <phase duration="13.774911" state="rrrrrrrrrrrrrrrrrrrrrrrrrrrrrrrrrrrGrG"/>
       <phase duration="28.790684" state="rrrrrrrrrrrrrrrGGrrrrrrrrrrrrrrrGGrrrr"/>
       <phase duration="66.745369" state="rrrrrrrrrggGGGgggrrrrrrrrrggGGGgggGrGr"/>
       <phase duration="3.345807" state="rrrrrrrrryyyyyyyyrrrrrrrrryyyyyyyyGrGr"/>
       <phase duration="11.279404" state="rrrrrrrrrrrrrrrrrrrrrrrrrrrrrrrrrrGrGr"/>
   </tlLogic>
</additional>
